*SPEF "IEEE 1481-1998"
*DESIGN "IIR_filter_optimized"
*DATE "Tue Nov 19 19:19:14 2019"
*VENDOR "Cadence Design Systems, Inc."
*PROGRAM "Innovus"
*VERSION "17.11-s080_1"
*DESIGN_FLOW "COUPLING C" "PIN_CAP NONE" "NAME_SCOPE LOCAL"
*DIVIDER /
*DELIMITER :
*BUS_DELIMITER []
*T_UNIT 1 NS
*C_UNIT 1 PF
*R_UNIT 1 OHM
*L_UNIT 1 HENRY

// MMMC spef file for corner 'my_rc'

*NAME_MAP

*1 DIN[11]
*2 DIN[10]
*3 DIN[9]
*4 DIN[8]
*5 DIN[7]
*6 DIN[6]
*7 DIN[5]
*8 DIN[4]
*9 DIN[3]
*10 DIN[2]
*11 DIN[1]
*12 DIN[0]
*13 CLK
*14 RST_n
*15 VIN
*16 DOUT[11]
*17 DOUT[10]
*18 DOUT[9]
*19 DOUT[8]
*20 DOUT[7]
*21 DOUT[6]
*22 DOUT[5]
*23 DOUT[4]
*24 DOUT[3]
*25 DOUT[2]
*26 DOUT[1]
*27 DOUT[0]
*28 VOUT
*29 FE_OFN17_filter_mult_120_n628
*30 FE_OFN16_filter_mult_126_n639
*31 FE_OFN15_filter_mult_129_n633
*32 FE_OFN14_filter_Reg_x_delay_1_n1
*33 FE_OFN13_filter_mult_123_n654
*34 FE_OFN12_filter_mult_126_n580
*35 FE_OFN11_filter_mult_129_n625
*36 FE_OFN10_filter_mult_206_n651
*37 FE_OFN9_filter_mult_129_n646
*38 FE_OFN8_filter_mult_117_n638
*39 FE_OFN7_filter_mult_126_n635
*40 FE_OFN6_filter_mult_209_n644
*41 FE_OFN5_filter_mult_120_n647
*42 FE_OFN4_filter_mult_206_n630
*43 FE_OFN3_filter_mult_129_n629
*44 FE_OFN2_filter_mult_123_n633
*45 FE_OFN1_filter_mult_209_n624
*46 FE_OFN0_filter_mult_120_n632
*47 FE_DBTN3_RST_n
*48 FE_DBTN2_filter_x_delay_4_1
*49 FE_DBTN1_filter_x_delay_2_1
*50 FE_DBTN0_filter_data_in_3
*51 filter_s_1_0_
*52 filter_s_1_10_
*53 filter_s_1_11_
*54 filter_s_1_12_
*55 filter_s_1_13_
*56 filter_s_1_14_
*57 filter_s_1_15_
*58 filter_s_1_16_
*59 filter_s_1_1_
*60 filter_s_1_2_
*61 filter_s_1_3_
*62 filter_s_1_4_
*63 filter_s_1_5_
*64 filter_s_1_6_
*65 filter_s_1_7_
*66 filter_s_1_8_
*67 filter_s_1_9_
*68 filter_s_2_0_
*69 filter_s_2_10_
*70 filter_s_2_11_
*71 filter_s_2_12_
*72 filter_s_2_13_
*73 filter_s_2_14_
*74 filter_s_2_15_
*75 filter_s_2_16_
*76 filter_s_2_1_
*77 filter_s_2_2_
*78 filter_s_2_3_
*79 filter_s_2_4_
*80 filter_s_2_5_
*81 filter_s_2_6_
*82 filter_s_2_7_
*83 filter_s_2_8_
*84 filter_s_2_9_
*85 filter_s_3_0_
*86 filter_s_3_10_
*87 filter_s_3_11_
*88 filter_s_3_12_
*89 filter_s_3_13_
*90 filter_s_3_14_
*91 filter_s_3_15_
*92 filter_s_3_16_
*93 filter_s_3_1_
*94 filter_s_3_2_
*95 filter_s_3_3_
*96 filter_s_3_4_
*97 filter_s_3_5_
*98 filter_s_3_6_
*99 filter_s_3_7_
*100 filter_s_3_8_
*101 filter_s_3_9_
*102 filter_s_5_0_
*103 filter_s_5_10_
*104 filter_s_5_11_
*105 filter_s_5_12_
*106 filter_s_5_13_
*107 filter_s_5_14_
*108 filter_s_5_15_
*109 filter_s_5_16_
*110 filter_s_5_1_
*111 filter_s_5_2_
*112 filter_s_5_3_
*113 filter_s_5_4_
*114 filter_s_5_5_
*115 filter_s_5_6_
*116 filter_s_5_7_
*117 filter_s_5_8_
*118 filter_s_5_9_
*119 filter_REG_CTRL_3_OUT
*120 filter_REG_CTRL_2_OUT
*121 filter_REG_CTRL_1_OUT
*122 filter_Reg_in_n12
*123 filter_Reg_in_n11
*124 filter_Reg_in_n10
*125 filter_Reg_in_n9
*126 filter_Reg_in_n8
*127 filter_Reg_in_n7
*128 filter_Reg_in_n6
*129 filter_Reg_in_n5
*130 filter_Reg_in_n4
*131 filter_Reg_in_n3
*132 filter_Reg_in_n2
*133 filter_Reg_in_n1
*134 filter_Reg_in_n27
*135 filter_Reg_in_n26
*136 filter_Reg_in_n25
*137 filter_Reg_in_n24
*138 filter_Reg_in_n23
*139 filter_Reg_in_n22
*140 filter_Reg_in_n21
*141 filter_Reg_in_n20
*142 filter_Reg_in_n19
*143 filter_Reg_in_n18
*144 filter_Reg_in_n17
*145 filter_Reg_in_n16
*146 filter_Reg_in_n15
*147 filter_Reg_in_n14
*148 filter_Reg_x_delay_1_n43
*149 filter_Reg_x_delay_1_n42
*150 filter_Reg_x_delay_1_n41
*151 filter_Reg_x_delay_1_n40
*152 filter_Reg_x_delay_1_n39
*153 filter_Reg_x_delay_1_n38
*154 filter_Reg_x_delay_1_n37
*155 filter_Reg_x_delay_1_n36
*156 filter_Reg_x_delay_1_n35
*157 filter_Reg_x_delay_1_n34
*158 filter_Reg_x_delay_1_n33
*159 filter_Reg_x_delay_1_n32
*160 filter_Reg_x_delay_1_n31
*161 filter_Reg_x_delay_1_n30
*162 filter_Reg_x_delay_1_n28
*163 filter_Reg_x_delay_1_n13
*164 filter_Reg_x_delay_1_n12
*165 filter_Reg_x_delay_1_n11
*166 filter_Reg_x_delay_1_n10
*167 filter_Reg_x_delay_1_n9
*168 filter_Reg_x_delay_1_n8
*169 filter_Reg_x_delay_1_n7
*170 filter_Reg_x_delay_1_n6
*171 filter_Reg_x_delay_1_n5
*172 filter_Reg_x_delay_1_n4
*173 filter_Reg_x_delay_1_n3
*174 filter_Reg_x_delay_1_n1
*175 filter_Reg_x_delay_1_n44
*176 filter_Reg_x_delay_2_n41
*177 filter_Reg_x_delay_2_n40
*178 filter_Reg_x_delay_2_n39
*179 filter_Reg_x_delay_2_n38
*180 filter_Reg_x_delay_2_n37
*181 filter_Reg_x_delay_2_n36
*182 filter_Reg_x_delay_2_n35
*183 filter_Reg_x_delay_2_n34
*184 filter_Reg_x_delay_2_n33
*185 filter_Reg_x_delay_2_n32
*186 filter_Reg_x_delay_2_n31
*187 filter_Reg_x_delay_2_n30
*188 filter_Reg_x_delay_2_n29
*189 filter_Reg_x_delay_2_n28
*190 filter_Reg_x_delay_2_n12
*191 filter_Reg_x_delay_2_n11
*192 filter_Reg_x_delay_2_n10
*193 filter_Reg_x_delay_2_n9
*194 filter_Reg_x_delay_2_n8
*195 filter_Reg_x_delay_2_n7
*196 filter_Reg_x_delay_2_n6
*197 filter_Reg_x_delay_2_n5
*198 filter_Reg_x_delay_2_n4
*199 filter_Reg_x_delay_2_n3
*200 filter_Reg_x_delay_2_n2
*201 filter_Reg_x_delay_2_n1
*202 filter_Reg_x_delay_3_n41
*203 filter_Reg_x_delay_3_n40
*204 filter_Reg_x_delay_3_n39
*205 filter_Reg_x_delay_3_n38
*206 filter_Reg_x_delay_3_n37
*207 filter_Reg_x_delay_3_n36
*208 filter_Reg_x_delay_3_n35
*209 filter_Reg_x_delay_3_n34
*210 filter_Reg_x_delay_3_n33
*211 filter_Reg_x_delay_3_n32
*212 filter_Reg_x_delay_3_n31
*213 filter_Reg_x_delay_3_n30
*214 filter_Reg_x_delay_3_n29
*215 filter_Reg_x_delay_3_n28
*216 filter_Reg_x_delay_3_n12
*217 filter_Reg_x_delay_3_n11
*218 filter_Reg_x_delay_3_n10
*219 filter_Reg_x_delay_3_n9
*220 filter_Reg_x_delay_3_n8
*221 filter_Reg_x_delay_3_n7
*222 filter_Reg_x_delay_3_n6
*223 filter_Reg_x_delay_3_n5
*224 filter_Reg_x_delay_3_n4
*225 filter_Reg_x_delay_3_n3
*226 filter_Reg_x_delay_3_n2
*227 filter_Reg_x_delay_3_n1
*228 filter_Reg_x_delay_4_n41
*229 filter_Reg_x_delay_4_n40
*230 filter_Reg_x_delay_4_n39
*231 filter_Reg_x_delay_4_n38
*232 filter_Reg_x_delay_4_n37
*233 filter_Reg_x_delay_4_n36
*234 filter_Reg_x_delay_4_n35
*235 filter_Reg_x_delay_4_n34
*236 filter_Reg_x_delay_4_n33
*237 filter_Reg_x_delay_4_n32
*238 filter_Reg_x_delay_4_n31
*239 filter_Reg_x_delay_4_n30
*240 filter_Reg_x_delay_4_n29
*241 filter_Reg_x_delay_4_n28
*242 filter_Reg_x_delay_4_n12
*243 filter_Reg_x_delay_4_n11
*244 filter_Reg_x_delay_4_n10
*245 filter_Reg_x_delay_4_n9
*246 filter_Reg_x_delay_4_n8
*247 filter_Reg_x_delay_4_n7
*248 filter_Reg_x_delay_4_n6
*249 filter_Reg_x_delay_4_n5
*250 filter_Reg_x_delay_4_n4
*251 filter_Reg_x_delay_4_n3
*252 filter_Reg_x_delay_4_n2
*253 filter_Reg_x_delay_4_n1
*254 filter_Reg_m1_n17
*255 filter_Reg_m1_n16
*256 filter_Reg_m1_n15
*257 filter_Reg_m1_n14
*258 filter_Reg_m1_n13
*259 filter_Reg_m1_n12
*260 filter_Reg_m1_n11
*261 filter_Reg_m1_n10
*262 filter_Reg_m1_n9
*263 filter_Reg_m1_n8
*264 filter_Reg_m1_n7
*265 filter_Reg_m1_n6
*266 filter_Reg_m1_n5
*267 filter_Reg_m1_n4
*268 filter_Reg_m1_n3
*269 filter_Reg_m1_n2
*270 filter_Reg_m1_n1
*271 filter_Reg_m1_n37
*272 filter_Reg_m1_n36
*273 filter_Reg_m1_n35
*274 filter_Reg_m1_n34
*275 filter_Reg_m1_n33
*276 filter_Reg_m1_n32
*277 filter_Reg_m1_n31
*278 filter_Reg_m1_n30
*279 filter_Reg_m1_n29
*280 filter_Reg_m1_n28
*281 filter_Reg_m1_n27
*282 filter_Reg_m1_n26
*283 filter_Reg_m1_n25
*284 filter_Reg_m1_n24
*285 filter_Reg_m1_n23
*286 filter_Reg_m1_n22
*287 filter_Reg_m1_n21
*288 filter_Reg_m1_n20
*289 filter_Reg_m1_n19
*290 filter_Reg_m2_n56
*291 filter_Reg_m2_n55
*292 filter_Reg_m2_n54
*293 filter_Reg_m2_n53
*294 filter_Reg_m2_n52
*295 filter_Reg_m2_n51
*296 filter_Reg_m2_n50
*297 filter_Reg_m2_n49
*298 filter_Reg_m2_n48
*299 filter_Reg_m2_n47
*300 filter_Reg_m2_n46
*301 filter_Reg_m2_n45
*302 filter_Reg_m2_n44
*303 filter_Reg_m2_n43
*304 filter_Reg_m2_n42
*305 filter_Reg_m2_n41
*306 filter_Reg_m2_n40
*307 filter_Reg_m2_n39
*308 filter_Reg_m2_n38
*309 filter_Reg_m2_n17
*310 filter_Reg_m2_n16
*311 filter_Reg_m2_n15
*312 filter_Reg_m2_n14
*313 filter_Reg_m2_n13
*314 filter_Reg_m2_n12
*315 filter_Reg_m2_n11
*316 filter_Reg_m2_n10
*317 filter_Reg_m2_n9
*318 filter_Reg_m2_n8
*319 filter_Reg_m2_n7
*320 filter_Reg_m2_n6
*321 filter_Reg_m2_n5
*322 filter_Reg_m2_n4
*323 filter_Reg_m2_n3
*324 filter_Reg_m2_n2
*325 filter_Reg_m2_n1
*326 filter_Reg_m3_n56
*327 filter_Reg_m3_n55
*328 filter_Reg_m3_n54
*329 filter_Reg_m3_n53
*330 filter_Reg_m3_n52
*331 filter_Reg_m3_n51
*332 filter_Reg_m3_n50
*333 filter_Reg_m3_n49
*334 filter_Reg_m3_n48
*335 filter_Reg_m3_n47
*336 filter_Reg_m3_n46
*337 filter_Reg_m3_n45
*338 filter_Reg_m3_n44
*339 filter_Reg_m3_n43
*340 filter_Reg_m3_n42
*341 filter_Reg_m3_n41
*342 filter_Reg_m3_n40
*343 filter_Reg_m3_n39
*344 filter_Reg_m3_n38
*345 filter_Reg_m3_n17
*346 filter_Reg_m3_n16
*347 filter_Reg_m3_n15
*348 filter_Reg_m3_n14
*349 filter_Reg_m3_n13
*350 filter_Reg_m3_n12
*351 filter_Reg_m3_n11
*352 filter_Reg_m3_n10
*353 filter_Reg_m3_n9
*354 filter_Reg_m3_n8
*355 filter_Reg_m3_n7
*356 filter_Reg_m3_n6
*357 filter_Reg_m3_n5
*358 filter_Reg_m3_n4
*359 filter_Reg_m3_n3
*360 filter_Reg_m3_n2
*361 filter_Reg_m3_n1
*362 filter_Reg_m4_n56
*363 filter_Reg_m4_n55
*364 filter_Reg_m4_n54
*365 filter_Reg_m4_n53
*366 filter_Reg_m4_n52
*367 filter_Reg_m4_n51
*368 filter_Reg_m4_n50
*369 filter_Reg_m4_n49
*370 filter_Reg_m4_n48
*371 filter_Reg_m4_n47
*372 filter_Reg_m4_n46
*373 filter_Reg_m4_n45
*374 filter_Reg_m4_n44
*375 filter_Reg_m4_n43
*376 filter_Reg_m4_n42
*377 filter_Reg_m4_n41
*378 filter_Reg_m4_n40
*379 filter_Reg_m4_n39
*380 filter_Reg_m4_n38
*381 filter_Reg_m4_n17
*382 filter_Reg_m4_n16
*383 filter_Reg_m4_n15
*384 filter_Reg_m4_n14
*385 filter_Reg_m4_n13
*386 filter_Reg_m4_n12
*387 filter_Reg_m4_n11
*388 filter_Reg_m4_n10
*389 filter_Reg_m4_n9
*390 filter_Reg_m4_n8
*391 filter_Reg_m4_n7
*392 filter_Reg_m4_n6
*393 filter_Reg_m4_n5
*394 filter_Reg_m4_n4
*395 filter_Reg_m4_n3
*396 filter_Reg_m4_n2
*397 filter_Reg_m4_n1
*398 filter_Reg_m5_n56
*399 filter_Reg_m5_n55
*400 filter_Reg_m5_n54
*401 filter_Reg_m5_n53
*402 filter_Reg_m5_n52
*403 filter_Reg_m5_n51
*404 filter_Reg_m5_n50
*405 filter_Reg_m5_n49
*406 filter_Reg_m5_n48
*407 filter_Reg_m5_n47
*408 filter_Reg_m5_n46
*409 filter_Reg_m5_n45
*410 filter_Reg_m5_n44
*411 filter_Reg_m5_n43
*412 filter_Reg_m5_n42
*413 filter_Reg_m5_n41
*414 filter_Reg_m5_n40
*415 filter_Reg_m5_n39
*416 filter_Reg_m5_n38
*417 filter_Reg_m5_n17
*418 filter_Reg_m5_n16
*419 filter_Reg_m5_n15
*420 filter_Reg_m5_n14
*421 filter_Reg_m5_n13
*422 filter_Reg_m5_n12
*423 filter_Reg_m5_n11
*424 filter_Reg_m5_n10
*425 filter_Reg_m5_n9
*426 filter_Reg_m5_n8
*427 filter_Reg_m5_n7
*428 filter_Reg_m5_n6
*429 filter_Reg_m5_n5
*430 filter_Reg_m5_n4
*431 filter_Reg_m5_n3
*432 filter_Reg_m5_n2
*433 filter_Reg_m5_n1
*434 filter_Reg_s4_n56
*435 filter_Reg_s4_n55
*436 filter_Reg_s4_n54
*437 filter_Reg_s4_n53
*438 filter_Reg_s4_n52
*439 filter_Reg_s4_n51
*440 filter_Reg_s4_n50
*441 filter_Reg_s4_n49
*442 filter_Reg_s4_n48
*443 filter_Reg_s4_n47
*444 filter_Reg_s4_n46
*445 filter_Reg_s4_n45
*446 filter_Reg_s4_n44
*447 filter_Reg_s4_n43
*448 filter_Reg_s4_n42
*449 filter_Reg_s4_n41
*450 filter_Reg_s4_n40
*451 filter_Reg_s4_n39
*452 filter_Reg_s4_n38
*453 filter_Reg_s4_n17
*454 filter_Reg_s4_n16
*455 filter_Reg_s4_n15
*456 filter_Reg_s4_n14
*457 filter_Reg_s4_n13
*458 filter_Reg_s4_n12
*459 filter_Reg_s4_n11
*460 filter_Reg_s4_n10
*461 filter_Reg_s4_n9
*462 filter_Reg_s4_n8
*463 filter_Reg_s4_n7
*464 filter_Reg_s4_n6
*465 filter_Reg_s4_n5
*466 filter_Reg_s4_n4
*467 filter_Reg_s4_n3
*468 filter_Reg_s4_n2
*469 filter_Reg_s4_n1
*470 filter_Reg_y_delay_1_n41
*471 filter_Reg_y_delay_1_n40
*472 filter_Reg_y_delay_1_n39
*473 filter_Reg_y_delay_1_n38
*474 filter_Reg_y_delay_1_n37
*475 filter_Reg_y_delay_1_n36
*476 filter_Reg_y_delay_1_n35
*477 filter_Reg_y_delay_1_n34
*478 filter_Reg_y_delay_1_n33
*479 filter_Reg_y_delay_1_n32
*480 filter_Reg_y_delay_1_n31
*481 filter_Reg_y_delay_1_n30
*482 filter_Reg_y_delay_1_n29
*483 filter_Reg_y_delay_1_n28
*484 filter_Reg_y_delay_1_n12
*485 filter_Reg_y_delay_1_n11
*486 filter_Reg_y_delay_1_n10
*487 filter_Reg_y_delay_1_n9
*488 filter_Reg_y_delay_1_n8
*489 filter_Reg_y_delay_1_n7
*490 filter_Reg_y_delay_1_n6
*491 filter_Reg_y_delay_1_n5
*492 filter_Reg_y_delay_1_n4
*493 filter_Reg_y_delay_1_n3
*494 filter_Reg_y_delay_1_n2
*495 filter_Reg_y_delay_1_n1
*496 filter_Reg_y_delay_2_n41
*497 filter_Reg_y_delay_2_n40
*498 filter_Reg_y_delay_2_n39
*499 filter_Reg_y_delay_2_n38
*500 filter_Reg_y_delay_2_n37
*501 filter_Reg_y_delay_2_n36
*502 filter_Reg_y_delay_2_n35
*503 filter_Reg_y_delay_2_n34
*504 filter_Reg_y_delay_2_n33
*505 filter_Reg_y_delay_2_n32
*506 filter_Reg_y_delay_2_n31
*507 filter_Reg_y_delay_2_n30
*508 filter_Reg_y_delay_2_n29
*509 filter_Reg_y_delay_2_n28
*510 filter_Reg_y_delay_2_n12
*511 filter_Reg_y_delay_2_n11
*512 filter_Reg_y_delay_2_n10
*513 filter_Reg_y_delay_2_n9
*514 filter_Reg_y_delay_2_n8
*515 filter_Reg_y_delay_2_n7
*516 filter_Reg_y_delay_2_n6
*517 filter_Reg_y_delay_2_n5
*518 filter_Reg_y_delay_2_n4
*519 filter_Reg_y_delay_2_n3
*520 filter_Reg_y_delay_2_n2
*521 filter_Reg_y_delay_2_n1
*522 filter_Reg_y_delay_3_n41
*523 filter_Reg_y_delay_3_n40
*524 filter_Reg_y_delay_3_n39
*525 filter_Reg_y_delay_3_n38
*526 filter_Reg_y_delay_3_n37
*527 filter_Reg_y_delay_3_n36
*528 filter_Reg_y_delay_3_n35
*529 filter_Reg_y_delay_3_n34
*530 filter_Reg_y_delay_3_n33
*531 filter_Reg_y_delay_3_n32
*532 filter_Reg_y_delay_3_n31
*533 filter_Reg_y_delay_3_n30
*534 filter_Reg_y_delay_3_n29
*535 filter_Reg_y_delay_3_n28
*536 filter_Reg_y_delay_3_n12
*537 filter_Reg_y_delay_3_n11
*538 filter_Reg_y_delay_3_n10
*539 filter_Reg_y_delay_3_n9
*540 filter_Reg_y_delay_3_n8
*541 filter_Reg_y_delay_3_n7
*542 filter_Reg_y_delay_3_n6
*543 filter_Reg_y_delay_3_n5
*544 filter_Reg_y_delay_3_n4
*545 filter_Reg_y_delay_3_n3
*546 filter_Reg_y_delay_3_n2
*547 filter_Reg_y_delay_3_n1
*548 filter_Reg_m6_n56
*549 filter_Reg_m6_n55
*550 filter_Reg_m6_n54
*551 filter_Reg_m6_n53
*552 filter_Reg_m6_n52
*553 filter_Reg_m6_n51
*554 filter_Reg_m6_n50
*555 filter_Reg_m6_n49
*556 filter_Reg_m6_n48
*557 filter_Reg_m6_n47
*558 filter_Reg_m6_n46
*559 filter_Reg_m6_n45
*560 filter_Reg_m6_n44
*561 filter_Reg_m6_n43
*562 filter_Reg_m6_n42
*563 filter_Reg_m6_n41
*564 filter_Reg_m6_n40
*565 filter_Reg_m6_n39
*566 filter_Reg_m6_n38
*567 filter_Reg_m6_n17
*568 filter_Reg_m6_n16
*569 filter_Reg_m6_n15
*570 filter_Reg_m6_n14
*571 filter_Reg_m6_n13
*572 filter_Reg_m6_n12
*573 filter_Reg_m6_n11
*574 filter_Reg_m6_n10
*575 filter_Reg_m6_n9
*576 filter_Reg_m6_n8
*577 filter_Reg_m6_n7
*578 filter_Reg_m6_n6
*579 filter_Reg_m6_n5
*580 filter_Reg_m6_n4
*581 filter_Reg_m6_n3
*582 filter_Reg_m6_n2
*583 filter_Reg_m6_n1
*584 filter_Reg_m7_n56
*585 filter_Reg_m7_n55
*586 filter_Reg_m7_n54
*587 filter_Reg_m7_n53
*588 filter_Reg_m7_n52
*589 filter_Reg_m7_n51
*590 filter_Reg_m7_n50
*591 filter_Reg_m7_n49
*592 filter_Reg_m7_n48
*593 filter_Reg_m7_n47
*594 filter_Reg_m7_n46
*595 filter_Reg_m7_n45
*596 filter_Reg_m7_n44
*597 filter_Reg_m7_n43
*598 filter_Reg_m7_n42
*599 filter_Reg_m7_n41
*600 filter_Reg_m7_n40
*601 filter_Reg_m7_n39
*602 filter_Reg_m7_n38
*603 filter_Reg_m7_n17
*604 filter_Reg_m7_n16
*605 filter_Reg_m7_n15
*606 filter_Reg_m7_n14
*607 filter_Reg_m7_n13
*608 filter_Reg_m7_n12
*609 filter_Reg_m7_n11
*610 filter_Reg_m7_n10
*611 filter_Reg_m7_n9
*612 filter_Reg_m7_n8
*613 filter_Reg_m7_n7
*614 filter_Reg_m7_n6
*615 filter_Reg_m7_n5
*616 filter_Reg_m7_n4
*617 filter_Reg_m7_n3
*618 filter_Reg_m7_n2
*619 filter_Reg_m7_n1
*620 filter_Reg_out_n41
*621 filter_Reg_out_n40
*622 filter_Reg_out_n39
*623 filter_Reg_out_n38
*624 filter_Reg_out_n37
*625 filter_Reg_out_n36
*626 filter_Reg_out_n35
*627 filter_Reg_out_n34
*628 filter_Reg_out_n33
*629 filter_Reg_out_n32
*630 filter_Reg_out_n31
*631 filter_Reg_out_n30
*632 filter_Reg_out_n29
*633 filter_Reg_out_n28
*634 filter_Reg_out_n12
*635 filter_Reg_out_n11
*636 filter_Reg_out_n10
*637 filter_Reg_out_n9
*638 filter_Reg_out_n8
*639 filter_Reg_out_n7
*640 filter_Reg_out_n6
*641 filter_Reg_out_n5
*642 filter_Reg_out_n4
*643 filter_Reg_out_n3
*644 filter_Reg_out_n2
*645 filter_Reg_out_n1
*646 filter_Reg_ctrl_1_n4
*647 filter_Reg_ctrl_1_n3
*648 filter_Reg_ctrl_2_n6
*649 filter_Reg_ctrl_2_n5
*650 filter_Reg_ctrl_2_n1
*651 filter_Reg_ctrl_3_n6
*652 filter_Reg_ctrl_3_n5
*653 filter_Reg_ctrl_VOUT_n6
*654 filter_Reg_ctrl_VOUT_n5
*655 filter_mult_206_n763
*656 filter_mult_206_n762
*657 filter_mult_206_n761
*658 filter_mult_206_n760
*659 filter_mult_206_n759
*660 filter_mult_206_n758
*661 filter_mult_206_n756
*662 filter_mult_206_n753
*663 filter_mult_206_n752
*664 filter_mult_206_n751
*665 filter_mult_206_n750
*666 filter_mult_206_n749
*667 filter_mult_206_n748
*668 filter_mult_206_n747
*669 filter_mult_206_n746
*670 filter_mult_206_n745
*671 filter_mult_206_n744
*672 filter_mult_206_n743
*673 filter_mult_206_n742
*674 filter_mult_206_n741
*675 filter_mult_206_n740
*676 filter_mult_206_n739
*677 filter_mult_206_n738
*678 filter_mult_206_n737
*679 filter_mult_206_n736
*680 filter_mult_206_n735
*681 filter_mult_206_n734
*682 filter_mult_206_n733
*683 filter_mult_206_n732
*684 filter_mult_206_n731
*685 filter_mult_206_n730
*686 filter_mult_206_n729
*687 filter_mult_206_n728
*688 filter_mult_206_n727
*689 filter_mult_206_n726
*690 filter_mult_206_n725
*691 filter_mult_206_n724
*692 filter_mult_206_n723
*693 filter_mult_206_n722
*694 filter_mult_206_n721
*695 filter_mult_206_n720
*696 filter_mult_206_n719
*697 filter_mult_206_n718
*698 filter_mult_206_n717
*699 filter_mult_206_n716
*700 filter_mult_206_n715
*701 filter_mult_206_n714
*702 filter_mult_206_n713
*703 filter_mult_206_n712
*704 filter_mult_206_n711
*705 filter_mult_206_n710
*706 filter_mult_206_n709
*707 filter_mult_206_n708
*708 filter_mult_206_n707
*709 filter_mult_206_n706
*710 filter_mult_206_n705
*711 filter_mult_206_n704
*712 filter_mult_206_n703
*713 filter_mult_206_n702
*714 filter_mult_206_n701
*715 filter_mult_206_n700
*716 filter_mult_206_n699
*717 filter_mult_206_n698
*718 filter_mult_206_n697
*719 filter_mult_206_n696
*720 filter_mult_206_n695
*721 filter_mult_206_n694
*722 filter_mult_206_n693
*723 filter_mult_206_n692
*724 filter_mult_206_n691
*725 filter_mult_206_n690
*726 filter_mult_206_n689
*727 filter_mult_206_n688
*728 filter_mult_206_n687
*729 filter_mult_206_n686
*730 filter_mult_206_n685
*731 filter_mult_206_n684
*732 filter_mult_206_n683
*733 filter_mult_206_n682
*734 filter_mult_206_n681
*735 filter_mult_206_n680
*736 filter_mult_206_n679
*737 filter_mult_206_n678
*738 filter_mult_206_n677
*739 filter_mult_206_n676
*740 filter_mult_206_n675
*741 filter_mult_206_n674
*742 filter_mult_206_n673
*743 filter_mult_206_n672
*744 filter_mult_206_n671
*745 filter_mult_206_n670
*746 filter_mult_206_n669
*747 filter_mult_206_n668
*748 filter_mult_206_n667
*749 filter_mult_206_n666
*750 filter_mult_206_n665
*751 filter_mult_206_n664
*752 filter_mult_206_n663
*753 filter_mult_206_n662
*754 filter_mult_206_n661
*755 filter_mult_206_n660
*756 filter_mult_206_n659
*757 filter_mult_206_n658
*758 filter_mult_206_n657
*759 filter_mult_206_n656
*760 filter_mult_206_n655
*761 filter_mult_206_n654
*762 filter_mult_206_n653
*763 filter_mult_206_n652
*764 filter_mult_206_n651
*765 filter_mult_206_n649
*766 filter_mult_206_n647
*767 filter_mult_206_n646
*768 filter_mult_206_n645
*769 filter_mult_206_n644
*770 filter_mult_206_n643
*771 filter_mult_206_n642
*772 filter_mult_206_n641
*773 filter_mult_206_n640
*774 filter_mult_206_n639
*775 filter_mult_206_n638
*776 filter_mult_206_n637
*777 filter_mult_206_n636
*778 filter_mult_206_n635
*779 filter_mult_206_n634
*780 filter_mult_206_n633
*781 filter_mult_206_n632
*782 filter_mult_206_n631
*783 filter_mult_206_n630
*784 filter_mult_206_n629
*785 filter_mult_206_n628
*786 filter_mult_206_n627
*787 filter_mult_206_n625
*788 filter_mult_206_n624
*789 filter_mult_206_n623
*790 filter_mult_206_n622
*791 filter_mult_206_n621
*792 filter_mult_206_n620
*793 filter_mult_206_n619
*794 filter_mult_206_n618
*795 filter_mult_206_n617
*796 filter_mult_206_n616
*797 filter_mult_206_n615
*798 filter_mult_206_n614
*799 filter_mult_206_n613
*800 filter_mult_206_n612
*801 filter_mult_206_n611
*802 filter_mult_206_n610
*803 filter_mult_206_n609
*804 filter_mult_206_n608
*805 filter_mult_206_n607
*806 filter_mult_206_n606
*807 filter_mult_206_n605
*808 filter_mult_206_n604
*809 filter_mult_206_n603
*810 filter_mult_206_n602
*811 filter_mult_206_n601
*812 filter_mult_206_n600
*813 filter_mult_206_n599
*814 filter_mult_206_n598
*815 filter_mult_206_n597
*816 filter_mult_206_n596
*817 filter_mult_206_n595
*818 filter_mult_206_n594
*819 filter_mult_206_n593
*820 filter_mult_206_n592
*821 filter_mult_206_n591
*822 filter_mult_206_n590
*823 filter_mult_206_n589
*824 filter_mult_206_n588
*825 filter_mult_206_n587
*826 filter_mult_206_n586
*827 filter_mult_206_n585
*828 filter_mult_206_n584
*829 filter_mult_206_n583
*830 filter_mult_206_n582
*831 filter_mult_206_n581
*832 filter_mult_206_n580
*833 filter_mult_206_n579
*834 filter_mult_206_n578
*835 filter_mult_206_n577
*836 filter_mult_206_n576
*837 filter_mult_206_n574
*838 filter_mult_206_n573
*839 filter_mult_206_n572
*840 filter_mult_206_n571
*841 filter_mult_206_n563
*842 filter_mult_206_n562
*843 filter_mult_206_n561
*844 filter_mult_206_n560
*845 filter_mult_206_n559
*846 filter_mult_206_n558
*847 filter_mult_206_n557
*848 filter_mult_206_n556
*849 filter_mult_206_n555
*850 filter_mult_206_n554
*851 filter_mult_206_n553
*852 filter_mult_206_n552
*853 filter_mult_206_n551
*854 filter_mult_206_n550
*855 filter_mult_206_n549
*856 filter_mult_206_n348
*857 filter_mult_206_n347
*858 filter_mult_206_n346
*859 filter_mult_206_n345
*860 filter_mult_206_n344
*861 filter_mult_206_n343
*862 filter_mult_206_n342
*863 filter_mult_206_n341
*864 filter_mult_206_n340
*865 filter_mult_206_n339
*866 filter_mult_206_n338
*867 filter_mult_206_n337
*868 filter_mult_206_n336
*869 filter_mult_206_n335
*870 filter_mult_206_n332
*871 filter_mult_206_n331
*872 filter_mult_206_n330
*873 filter_mult_206_n329
*874 filter_mult_206_n328
*875 filter_mult_206_n327
*876 filter_mult_206_n326
*877 filter_mult_206_n325
*878 filter_mult_206_n324
*879 filter_mult_206_n323
*880 filter_mult_206_n322
*881 filter_mult_206_n321
*882 filter_mult_206_n320
*883 filter_mult_206_n319
*884 filter_mult_206_n318
*885 filter_mult_206_n317
*886 filter_mult_206_n316
*887 filter_mult_206_n315
*888 filter_mult_206_n314
*889 filter_mult_206_n313
*890 filter_mult_206_n312
*891 filter_mult_206_n311
*892 filter_mult_206_n310
*893 filter_mult_206_n309
*894 filter_mult_206_n308
*895 filter_mult_206_n307
*896 filter_mult_206_n306
*897 filter_mult_206_n305
*898 filter_mult_206_n304
*899 filter_mult_206_n302
*900 filter_mult_206_n301
*901 filter_mult_206_n299
*902 filter_mult_206_n298
*903 filter_mult_206_n297
*904 filter_mult_206_n296
*905 filter_mult_206_n295
*906 filter_mult_206_n294
*907 filter_mult_206_n293
*908 filter_mult_206_n292
*909 filter_mult_206_n291
*910 filter_mult_206_n290
*911 filter_mult_206_n289
*912 filter_mult_206_n288
*913 filter_mult_206_n287
*914 filter_mult_206_n286
*915 filter_mult_206_n285
*916 filter_mult_206_n284
*917 filter_mult_206_n282
*918 filter_mult_206_n281
*919 filter_mult_206_n280
*920 filter_mult_206_n279
*921 filter_mult_206_n278
*922 filter_mult_206_n277
*923 filter_mult_206_n276
*924 filter_mult_206_n275
*925 filter_mult_206_n274
*926 filter_mult_206_n272
*927 filter_mult_206_n271
*928 filter_mult_206_n270
*929 filter_mult_206_n269
*930 filter_mult_206_n268
*931 filter_mult_206_n267
*932 filter_mult_206_n265
*933 filter_mult_206_n264
*934 filter_mult_206_n263
*935 filter_mult_206_n262
*936 filter_mult_206_n261
*937 filter_mult_206_n260
*938 filter_mult_206_n259
*939 filter_mult_206_n258
*940 filter_mult_206_n257
*941 filter_mult_206_n256
*942 filter_mult_206_n255
*943 filter_mult_206_n254
*944 filter_mult_206_n253
*945 filter_mult_206_n252
*946 filter_mult_206_n251
*947 filter_mult_206_n250
*948 filter_mult_206_n246
*949 filter_mult_206_n245
*950 filter_mult_206_n244
*951 filter_mult_206_n243
*952 filter_mult_206_n225
*953 filter_mult_206_n224
*954 filter_mult_206_n223
*955 filter_mult_206_n221
*956 filter_mult_206_n220
*957 filter_mult_206_n219
*958 filter_mult_206_n218
*959 filter_mult_206_n217
*960 filter_mult_206_n216
*961 filter_mult_206_n215
*962 filter_mult_206_n214
*963 filter_mult_206_n213
*964 filter_mult_206_n212
*965 filter_mult_206_n211
*966 filter_mult_206_n210
*967 filter_mult_206_n209
*968 filter_mult_206_n208
*969 filter_mult_206_n207
*970 filter_mult_206_n206
*971 filter_mult_206_n205
*972 filter_mult_206_n204
*973 filter_mult_206_n203
*974 filter_mult_206_n202
*975 filter_mult_206_n201
*976 filter_mult_206_n200
*977 filter_mult_206_n199
*978 filter_mult_206_n198
*979 filter_mult_206_n197
*980 filter_mult_206_n196
*981 filter_mult_206_n195
*982 filter_mult_206_n194
*983 filter_mult_206_n193
*984 filter_mult_206_n192
*985 filter_mult_206_n191
*986 filter_mult_206_n190
*987 filter_mult_206_n189
*988 filter_mult_206_n188
*989 filter_mult_206_n187
*990 filter_mult_206_n186
*991 filter_mult_206_n185
*992 filter_mult_206_n184
*993 filter_mult_206_n183
*994 filter_mult_206_n182
*995 filter_mult_206_n181
*996 filter_mult_206_n180
*997 filter_mult_206_n179
*998 filter_mult_206_n178
*999 filter_mult_206_n177
*1000 filter_mult_206_n176
*1001 filter_mult_206_n175
*1002 filter_mult_206_n174
*1003 filter_mult_206_n173
*1004 filter_mult_206_n172
*1005 filter_mult_206_n171
*1006 filter_mult_206_n170
*1007 filter_mult_206_n169
*1008 filter_mult_206_n168
*1009 filter_mult_206_n167
*1010 filter_mult_206_n166
*1011 filter_mult_206_n165
*1012 filter_mult_206_n164
*1013 filter_mult_206_n163
*1014 filter_mult_206_n162
*1015 filter_mult_206_n161
*1016 filter_mult_206_n160
*1017 filter_mult_206_n159
*1018 filter_mult_206_n158
*1019 filter_mult_206_n157
*1020 filter_mult_206_n156
*1021 filter_mult_206_n155
*1022 filter_mult_206_n154
*1023 filter_mult_206_n153
*1024 filter_mult_206_n152
*1025 filter_mult_206_n151
*1026 filter_mult_206_n150
*1027 filter_mult_206_n149
*1028 filter_mult_206_n148
*1029 filter_mult_206_n147
*1030 filter_mult_206_n146
*1031 filter_mult_206_n145
*1032 filter_mult_206_n144
*1033 filter_mult_206_n143
*1034 filter_mult_206_n142
*1035 filter_mult_206_n141
*1036 filter_mult_206_n140
*1037 filter_mult_206_n139
*1038 filter_mult_206_n138
*1039 filter_mult_206_n137
*1040 filter_mult_206_n136
*1041 filter_mult_206_n135
*1042 filter_mult_206_n134
*1043 filter_mult_206_n133
*1044 filter_mult_206_n132
*1045 filter_mult_206_n131
*1046 filter_mult_206_n130
*1047 filter_mult_206_n129
*1048 filter_mult_206_n128
*1049 filter_mult_206_n127
*1050 filter_mult_206_n126
*1051 filter_mult_206_n125
*1052 filter_mult_206_n124
*1053 filter_mult_206_n123
*1054 filter_mult_206_n122
*1055 filter_mult_206_n121
*1056 filter_mult_206_n120
*1057 filter_mult_206_n119
*1058 filter_mult_206_n118
*1059 filter_mult_206_n117
*1060 filter_mult_206_n116
*1061 filter_mult_206_n114
*1062 filter_mult_206_n113
*1063 filter_mult_206_n112
*1064 filter_mult_206_n111
*1065 filter_mult_206_n110
*1066 filter_mult_206_n109
*1067 filter_mult_206_n108
*1068 filter_mult_206_n107
*1069 filter_mult_206_n106
*1070 filter_mult_206_n105
*1071 filter_mult_206_n104
*1072 filter_mult_206_n103
*1073 filter_mult_206_n102
*1074 filter_mult_206_n101
*1075 filter_mult_206_n100
*1076 filter_mult_206_n99
*1077 filter_mult_206_n98
*1078 filter_mult_206_n96
*1079 filter_mult_206_n95
*1080 filter_mult_206_n94
*1081 filter_mult_206_n93
*1082 filter_mult_206_n92
*1083 filter_mult_206_n91
*1084 filter_mult_206_n90
*1085 filter_mult_206_n89
*1086 filter_mult_206_n88
*1087 filter_mult_206_n87
*1088 filter_mult_206_n86
*1089 filter_mult_206_n85
*1090 filter_mult_206_n84
*1091 filter_mult_206_n82
*1092 filter_mult_206_n81
*1093 filter_mult_206_n80
*1094 filter_mult_206_n79
*1095 filter_mult_206_n78
*1096 filter_mult_206_n77
*1097 filter_mult_206_n76
*1098 filter_mult_206_n75
*1099 filter_mult_206_n74
*1100 filter_mult_206_n72
*1101 filter_mult_206_n71
*1102 filter_mult_206_n70
*1103 filter_mult_206_n69
*1104 filter_mult_206_n68
*1105 filter_mult_206_n67
*1106 filter_mult_206_n55
*1107 filter_mult_206_n54
*1108 filter_mult_206_n53
*1109 filter_mult_206_n52
*1110 filter_mult_206_n51
*1111 filter_mult_206_n50
*1112 filter_mult_206_n49
*1113 filter_mult_206_n48
*1114 filter_mult_206_n47
*1115 filter_mult_206_n46
*1116 filter_mult_206_n45
*1117 filter_mult_206_n44
*1118 filter_mult_206_n43
*1119 filter_mult_206_n42
*1120 filter_mult_206_n41
*1121 filter_mult_206_n40
*1122 filter_mult_209_n756
*1123 filter_mult_209_n755
*1124 filter_mult_209_n754
*1125 filter_mult_209_n753
*1126 filter_mult_209_n752
*1127 filter_mult_209_n751
*1128 filter_mult_209_n750
*1129 filter_mult_209_n748
*1130 filter_mult_209_n745
*1131 filter_mult_209_n744
*1132 filter_mult_209_n743
*1133 filter_mult_209_n742
*1134 filter_mult_209_n741
*1135 filter_mult_209_n740
*1136 filter_mult_209_n739
*1137 filter_mult_209_n738
*1138 filter_mult_209_n737
*1139 filter_mult_209_n736
*1140 filter_mult_209_n735
*1141 filter_mult_209_n734
*1142 filter_mult_209_n733
*1143 filter_mult_209_n732
*1144 filter_mult_209_n731
*1145 filter_mult_209_n730
*1146 filter_mult_209_n729
*1147 filter_mult_209_n728
*1148 filter_mult_209_n727
*1149 filter_mult_209_n726
*1150 filter_mult_209_n725
*1151 filter_mult_209_n724
*1152 filter_mult_209_n723
*1153 filter_mult_209_n722
*1154 filter_mult_209_n721
*1155 filter_mult_209_n720
*1156 filter_mult_209_n719
*1157 filter_mult_209_n718
*1158 filter_mult_209_n717
*1159 filter_mult_209_n716
*1160 filter_mult_209_n715
*1161 filter_mult_209_n714
*1162 filter_mult_209_n713
*1163 filter_mult_209_n712
*1164 filter_mult_209_n711
*1165 filter_mult_209_n710
*1166 filter_mult_209_n709
*1167 filter_mult_209_n708
*1168 filter_mult_209_n707
*1169 filter_mult_209_n706
*1170 filter_mult_209_n705
*1171 filter_mult_209_n704
*1172 filter_mult_209_n703
*1173 filter_mult_209_n702
*1174 filter_mult_209_n701
*1175 filter_mult_209_n700
*1176 filter_mult_209_n699
*1177 filter_mult_209_n698
*1178 filter_mult_209_n697
*1179 filter_mult_209_n696