*SPEF "IEEE 1481-1998"
*DESIGN "IIR_filter_optimized"
*DATE "Fri Nov 15 23:10:25 2019"
*VENDOR "Cadence Design Systems, Inc."
*PROGRAM "Innovus"
*VERSION "17.11-s080_1"
*DESIGN_FLOW "COUPLING C" "PIN_CAP NONE" "NAME_SCOPE LOCAL"
*DIVIDER /
*DELIMITER :
*BUS_DELIMITER []
*T_UNIT 1 NS
*C_UNIT 1 PF
*R_UNIT 1 OHM
*L_UNIT 1 HENRY

// MMMC spef file for corner 'my_rc'

*NAME_MAP

*1 FE_OFN27_filter_mult_161_n754
*2 FE_OFN26_filter_mult_203_n789
*3 FE_OFN25_filter_mult_150_n731
*4 FE_OFN24_filter_mult_150_n802
*5 FE_OFN23_filter_mult_161_n666
*6 FE_OFN22_filter_mult_174_n757
*7 FE_OFN21_filter_mult_150_n742
*8 FE_OFN20_filter_mult_126_n747
*9 FE_OFN19_filter_mult_161_n823
*10 FE_OFN18_filter_s_A1_reg_delay3_12
*11 FE_OFN17_filter_mult_203_n789
*12 FE_OFN16_filter_mult_185_n771
*13 FE_OFN15_filter_mult_129_n759
*14 FE_OFN14_filter_mult_203_n749
*15 FE_OFN13_filter_mult_126_n807
*16 FE_OFN12_filter_mult_126_n787
*17 FE_OFN11_filter_mult_161_n803
*18 FE_OFN10_filter_mult_129_n799
*19 FE_OFN9_filter_mult_174_n797
*20 FE_OFN8_filter_mult_203_n809
*21 FE_OFN7_filter_mult_150_n782
*22 FE_OFN6_filter_mult_185_n811
*23 FE_OFN4_FE_DBTN17_filter_s_A1_reg_delay2_5
*24 FE_OFN3_FE_DBTN17_filter_s_A1_reg_delay2_5
*25 FE_OFN2_filter_s_A1_reg_delay1_12
*26 FE_OFN1_filter_s_A1_reg_delay2_12
*27 FE_OFN0_filter_s_A1_reg_12
*28 FE_DBTN22_RST_n
*29 FE_DBTN21_filter_Reg_s_A1_2_n46
*30 FE_DBTN20_filter_s_A1_reg_delay3_1
*31 FE_DBTN19_filter_s_A1_reg_delay2_0
*32 FE_DBTN18_filter_s_A1_reg_delay2_1
*33 FE_DBTN17_filter_s_A1_reg_delay2_5
*34 FE_DBTN16_filter_s_A1_reg_delay2_7
*35 FE_DBTN15_filter_s_A1_reg_delay2_9
*36 FE_DBTN14_filter_s_A1_reg_delay2_11
*37 FE_DBTN13_filter_s_A1_reg_delay1_0
*38 FE_DBTN12_filter_s_A1_reg_delay1_1
*39 FE_DBTN11_filter_s_A1_reg_delay1_3
*40 FE_DBTN10_filter_s_A1_reg_delay1_5
*41 FE_DBTN9_filter_s_A1_reg_delay1_7
*42 FE_DBTN8_filter_s_A1_reg_delay1_9
*43 FE_DBTN7_filter_s_A1_reg_delay1_11
*44 FE_DBTN6_filter_s_A1_reg_0
*45 FE_DBTN5_filter_s_A1_reg_1
*46 FE_DBTN4_filter_s_A1_reg_3
*47 FE_DBTN3_filter_s_A1_reg_5
*48 FE_DBTN2_filter_s_A1_reg_7
*49 FE_DBTN1_filter_s_A1_reg_9
*50 FE_DBTN0_filter_s_A1_reg_11
*51 DIN[11]
*52 DIN[10]
*53 DIN[9]
*54 DIN[8]
*55 DIN[7]
*56 DIN[6]
*57 DIN[5]
*58 DIN[4]
*59 DIN[3]
*60 DIN[2]
*61 DIN[1]
*62 DIN[0]
*63 DOUT[11]
*64 DOUT[10]
*65 DOUT[9]
*66 DOUT[8]
*67 DOUT[7]
*68 DOUT[6]
*69 DOUT[5]
*70 DOUT[4]
*71 DOUT[3]
*72 DOUT[2]
*73 DOUT[1]
*74 DOUT[0]
*75 CLK
*76 RST_n
*77 VIN
*78 VOUT
*79 filter_s_B2_0_
*80 filter_s_B2_10_
*81 filter_s_B2_11_
*82 filter_s_B2_12_
*83 filter_s_B2_13_
*84 filter_s_B2_14_
*85 filter_s_B2_15_
*86 filter_s_B2_16_
*87 filter_s_B2_1_
*88 filter_s_B2_2_
*89 filter_s_B2_3_
*90 filter_s_B2_4_
*91 filter_s_B2_5_
*92 filter_s_B2_6_
*93 filter_s_B2_7_
*94 filter_s_B2_8_
*95 filter_s_B2_9_
*96 filter_s_B3_0_
*97 filter_s_B3_10_
*98 filter_s_B3_11_
*99 filter_s_B3_12_
*100 filter_s_B3_13_
*101 filter_s_B3_14_
*102 filter_s_B3_15_
*103 filter_s_B3_16_
*104 filter_s_B3_1_
*105 filter_s_B3_2_
*106 filter_s_B3_3_
*107 filter_s_B3_4_
*108 filter_s_B3_5_
*109 filter_s_B3_6_
*110 filter_s_B3_7_
*111 filter_s_B3_8_
*112 filter_s_B3_9_
*113 filter_s_A2_10_
*114 filter_s_A2_11_
*115 filter_s_A2_12_
*116 filter_s_A2_13_
*117 filter_s_A2_14_
*118 filter_s_A2_15_
*119 filter_s_A2_16_
*120 filter_s_A2_5_
*121 filter_s_A2_6_
*122 filter_s_A2_7_
*123 filter_s_A2_8_
*124 filter_s_A2_9_
*125 filter_REG_CTRL_3_OUT
*126 filter_REG_CTRL_2_OUT
*127 filter_REG_CTRL_1_OUT
*128 filter_Reg_in_n12
*129 filter_Reg_in_n11
*130 filter_Reg_in_n10
*131 filter_Reg_in_n9
*132 filter_Reg_in_n8
*133 filter_Reg_in_n7
*134 filter_Reg_in_n6
*135 filter_Reg_in_n5
*136 filter_Reg_in_n4
*137 filter_Reg_in_n3
*138 filter_Reg_in_n2
*139 filter_Reg_in_n1
*140 filter_Reg_in_n27
*141 filter_Reg_in_n26
*142 filter_Reg_in_n25
*143 filter_Reg_in_n24
*144 filter_Reg_in_n23
*145 filter_Reg_in_n22
*146 filter_Reg_in_n21
*147 filter_Reg_in_n20
*148 filter_Reg_in_n19
*149 filter_Reg_in_n18
*150 filter_Reg_in_n17
*151 filter_Reg_in_n16
*152 filter_Reg_in_n15
*153 filter_Reg_in_n14
*154 filter_Reg_s_A1_0_n13
*155 filter_Reg_s_A1_0_n12
*156 filter_Reg_s_A1_0_n11
*157 filter_Reg_s_A1_0_n10
*158 filter_Reg_s_A1_0_n9
*159 filter_Reg_s_A1_0_n8
*160 filter_Reg_s_A1_0_n7
*161 filter_Reg_s_A1_0_n6
*162 filter_Reg_s_A1_0_n5
*163 filter_Reg_s_A1_0_n4
*164 filter_Reg_s_A1_0_n3
*165 filter_Reg_s_A1_0_n2
*166 filter_Reg_s_A1_0_n1
*167 filter_Reg_s_A1_0_n29
*168 filter_Reg_s_A1_0_n28
*169 filter_Reg_s_A1_0_n27
*170 filter_Reg_s_A1_0_n26
*171 filter_Reg_s_A1_0_n25
*172 filter_Reg_s_A1_0_n24
*173 filter_Reg_s_A1_0_n23
*174 filter_Reg_s_A1_0_n22
*175 filter_Reg_s_A1_0_n21
*176 filter_Reg_s_A1_0_n20
*177 filter_Reg_s_A1_0_n19
*178 filter_Reg_s_A1_0_n18
*179 filter_Reg_s_A1_0_n17
*180 filter_Reg_s_A1_0_n16
*181 filter_Reg_s_A1_0_n15
*182 filter_Reg_s_A1_1_n46
*183 filter_Reg_s_A1_1_n45
*184 filter_Reg_s_A1_1_n44
*185 filter_Reg_s_A1_1_n43
*186 filter_Reg_s_A1_1_n42
*187 filter_Reg_s_A1_1_n41
*188 filter_Reg_s_A1_1_n40
*189 filter_Reg_s_A1_1_n39
*190 filter_Reg_s_A1_1_n38
*191 filter_Reg_s_A1_1_n37
*192 filter_Reg_s_A1_1_n36
*193 filter_Reg_s_A1_1_n35
*194 filter_Reg_s_A1_1_n34
*195 filter_Reg_s_A1_1_n33
*196 filter_Reg_s_A1_1_n32
*197 filter_Reg_s_A1_1_n30
*198 filter_Reg_s_A1_1_n14
*199 filter_Reg_s_A1_1_n13
*200 filter_Reg_s_A1_1_n12
*201 filter_Reg_s_A1_1_n11
*202 filter_Reg_s_A1_1_n10
*203 filter_Reg_s_A1_1_n9
*204 filter_Reg_s_A1_1_n8
*205 filter_Reg_s_A1_1_n7
*206 filter_Reg_s_A1_1_n6
*207 filter_Reg_s_A1_1_n5
*208 filter_Reg_s_A1_1_n4
*209 filter_Reg_s_A1_1_n3
*210 filter_Reg_s_A1_1_n2
*211 filter_Reg_s_A1_1_n1
*212 filter_Reg_s_A1_2_n45
*213 filter_Reg_s_A1_2_n44
*214 filter_Reg_s_A1_2_n43
*215 filter_Reg_s_A1_2_n42
*216 filter_Reg_s_A1_2_n41
*217 filter_Reg_s_A1_2_n40
*218 filter_Reg_s_A1_2_n39
*219 filter_Reg_s_A1_2_n38
*220 filter_Reg_s_A1_2_n37
*221 filter_Reg_s_A1_2_n36
*222 filter_Reg_s_A1_2_n35
*223 filter_Reg_s_A1_2_n34
*224 filter_Reg_s_A1_2_n33
*225 filter_Reg_s_A1_2_n32
*226 filter_Reg_s_A1_2_n31
*227 filter_Reg_s_A1_2_n14
*228 filter_Reg_s_A1_2_n13
*229 filter_Reg_s_A1_2_n12
*230 filter_Reg_s_A1_2_n11
*231 filter_Reg_s_A1_2_n10
*232 filter_Reg_s_A1_2_n9
*233 filter_Reg_s_A1_2_n8
*234 filter_Reg_s_A1_2_n7
*235 filter_Reg_s_A1_2_n6
*236 filter_Reg_s_A1_2_n5
*237 filter_Reg_s_A1_2_n4
*238 filter_Reg_s_A1_2_n3
*239 filter_Reg_s_A1_2_n2
*240 filter_Reg_s_A1_2_n46
*241 filter_Reg_m_A1_n17
*242 filter_Reg_m_A1_n16
*243 filter_Reg_m_A1_n15
*244 filter_Reg_m_A1_n14
*245 filter_Reg_m_A1_n13
*246 filter_Reg_m_A1_n12
*247 filter_Reg_m_A1_n11
*248 filter_Reg_m_A1_n10
*249 filter_Reg_m_A1_n9
*250 filter_Reg_m_A1_n8
*251 filter_Reg_m_A1_n7
*252 filter_Reg_m_A1_n6
*253 filter_Reg_m_A1_n5
*254 filter_Reg_m_A1_n4
*255 filter_Reg_m_A1_n3
*256 filter_Reg_m_A1_n2
*257 filter_Reg_m_A1_n1
*258 filter_Reg_m_A1_n37
*259 filter_Reg_m_A1_n36
*260 filter_Reg_m_A1_n35
*261 filter_Reg_m_A1_n34
*262 filter_Reg_m_A1_n33
*263 filter_Reg_m_A1_n32
*264 filter_Reg_m_A1_n31
*265 filter_Reg_m_A1_n30
*266 filter_Reg_m_A1_n29
*267 filter_Reg_m_A1_n28
*268 filter_Reg_m_A1_n27
*269 filter_Reg_m_A1_n26
*270 filter_Reg_m_A1_n25
*271 filter_Reg_m_A1_n24
*272 filter_Reg_m_A1_n23
*273 filter_Reg_m_A1_n22
*274 filter_Reg_m_A1_n21
*275 filter_Reg_m_A1_n20
*276 filter_Reg_m_A1_n19
*277 filter_Reg_m_A2_n56
*278 filter_Reg_m_A2_n55
*279 filter_Reg_m_A2_n54
*280 filter_Reg_m_A2_n53
*281 filter_Reg_m_A2_n52
*282 filter_Reg_m_A2_n51
*283 filter_Reg_m_A2_n50
*284 filter_Reg_m_A2_n49
*285 filter_Reg_m_A2_n48
*286 filter_Reg_m_A2_n47
*287 filter_Reg_m_A2_n46
*288 filter_Reg_m_A2_n45
*289 filter_Reg_m_A2_n44
*290 filter_Reg_m_A2_n43
*291 filter_Reg_m_A2_n42
*292 filter_Reg_m_A2_n41
*293 filter_Reg_m_A2_n40
*294 filter_Reg_m_A2_n39
*295 filter_Reg_m_A2_n38
*296 filter_Reg_m_A2_n17
*297 filter_Reg_m_A2_n16
*298 filter_Reg_m_A2_n15
*299 filter_Reg_m_A2_n14
*300 filter_Reg_m_A2_n13
*301 filter_Reg_m_A2_n12
*302 filter_Reg_m_A2_n11
*303 filter_Reg_m_A2_n10
*304 filter_Reg_m_A2_n9
*305 filter_Reg_m_A2_n8
*306 filter_Reg_m_A2_n7
*307 filter_Reg_m_A2_n6
*308 filter_Reg_m_A2_n5
*309 filter_Reg_m_A2_n4
*310 filter_Reg_m_A2_n3
*311 filter_Reg_m_A2_n2
*312 filter_Reg_m_A2_n1
*313 filter_Reg_m_B0_n56
*314 filter_Reg_m_B0_n55
*315 filter_Reg_m_B0_n54
*316 filter_Reg_m_B0_n53
*317 filter_Reg_m_B0_n52
*318 filter_Reg_m_B0_n51
*319 filter_Reg_m_B0_n50
*320 filter_Reg_m_B0_n49
*321 filter_Reg_m_B0_n48
*322 filter_Reg_m_B0_n47
*323 filter_Reg_m_B0_n46
*324 filter_Reg_m_B0_n45
*325 filter_Reg_m_B0_n44
*326 filter_Reg_m_B0_n43
*327 filter_Reg_m_B0_n42
*328 filter_Reg_m_B0_n41
*329 filter_Reg_m_B0_n40
*330 filter_Reg_m_B0_n39
*331 filter_Reg_m_B0_n38
*332 filter_Reg_m_B0_n17
*333 filter_Reg_m_B0_n16
*334 filter_Reg_m_B0_n15
*335 filter_Reg_m_B0_n14
*336 filter_Reg_m_B0_n13
*337 filter_Reg_m_B0_n12
*338 filter_Reg_m_B0_n11
*339 filter_Reg_m_B0_n10
*340 filter_Reg_m_B0_n9
*341 filter_Reg_m_B0_n8
*342 filter_Reg_m_B0_n7
*343 filter_Reg_m_B0_n6
*344 filter_Reg_m_B0_n5
*345 filter_Reg_m_B0_n4
*346 filter_Reg_m_B0_n3
*347 filter_Reg_m_B0_n2
*348 filter_Reg_m_B0_n1
*349 filter_Reg_m_B1_n56
*350 filter_Reg_m_B1_n55
*351 filter_Reg_m_B1_n54
*352 filter_Reg_m_B1_n53
*353 filter_Reg_m_B1_n52
*354 filter_Reg_m_B1_n51
*355 filter_Reg_m_B1_n50
*356 filter_Reg_m_B1_n49
*357 filter_Reg_m_B1_n48
*358 filter_Reg_m_B1_n47
*359 filter_Reg_m_B1_n46
*360 filter_Reg_m_B1_n45
*361 filter_Reg_m_B1_n44
*362 filter_Reg_m_B1_n43
*363 filter_Reg_m_B1_n42
*364 filter_Reg_m_B1_n41
*365 filter_Reg_m_B1_n40
*366 filter_Reg_m_B1_n39
*367 filter_Reg_m_B1_n38
*368 filter_Reg_m_B1_n17
*369 filter_Reg_m_B1_n16
*370 filter_Reg_m_B1_n15
*371 filter_Reg_m_B1_n14
*372 filter_Reg_m_B1_n13
*373 filter_Reg_m_B1_n12
*374 filter_Reg_m_B1_n11
*375 filter_Reg_m_B1_n10
*376 filter_Reg_m_B1_n9
*377 filter_Reg_m_B1_n8
*378 filter_Reg_m_B1_n7
*379 filter_Reg_m_B1_n6
*380 filter_Reg_m_B1_n5
*381 filter_Reg_m_B1_n4
*382 filter_Reg_m_B1_n3
*383 filter_Reg_m_B1_n2
*384 filter_Reg_m_B1_n1
*385 filter_Reg_m_B2_n56
*386 filter_Reg_m_B2_n55
*387 filter_Reg_m_B2_n54
*388 filter_Reg_m_B2_n53
*389 filter_Reg_m_B2_n52
*390 filter_Reg_m_B2_n51
*391 filter_Reg_m_B2_n50
*392 filter_Reg_m_B2_n49
*393 filter_Reg_m_B2_n48
*394 filter_Reg_m_B2_n47
*395 filter_Reg_m_B2_n46
*396 filter_Reg_m_B2_n45
*397 filter_Reg_m_B2_n44
*398 filter_Reg_m_B2_n43
*399 filter_Reg_m_B2_n42
*400 filter_Reg_m_B2_n41
*401 filter_Reg_m_B2_n40
*402 filter_Reg_m_B2_n39
*403 filter_Reg_m_B2_n38
*404 filter_Reg_m_B2_n17
*405 filter_Reg_m_B2_n16
*406 filter_Reg_m_B2_n15
*407 filter_Reg_m_B2_n14
*408 filter_Reg_m_B2_n13
*409 filter_Reg_m_B2_n12
*410 filter_Reg_m_B2_n11
*411 filter_Reg_m_B2_n10
*412 filter_Reg_m_B2_n9
*413 filter_Reg_m_B2_n8
*414 filter_Reg_m_B2_n7
*415 filter_Reg_m_B2_n6
*416 filter_Reg_m_B2_n5
*417 filter_Reg_m_B2_n4
*418 filter_Reg_m_B2_n3
*419 filter_Reg_m_B2_n2
*420 filter_Reg_m_B2_n1
*421 filter_Reg_m_B3_n56
*422 filter_Reg_m_B3_n55
*423 filter_Reg_m_B3_n54
*424 filter_Reg_m_B3_n53
*425 filter_Reg_m_B3_n52
*426 filter_Reg_m_B3_n51
*427 filter_Reg_m_B3_n50
*428 filter_Reg_m_B3_n49
*429 filter_Reg_m_B3_n48
*430 filter_Reg_m_B3_n47
*431 filter_Reg_m_B3_n46
*432 filter_Reg_m_B3_n45
*433 filter_Reg_m_B3_n44
*434 filter_Reg_m_B3_n43
*435 filter_Reg_m_B3_n42
*436 filter_Reg_m_B3_n41
*437 filter_Reg_m_B3_n40
*438 filter_Reg_m_B3_n39
*439 filter_Reg_m_B3_n38
*440 filter_Reg_m_B3_n17
*441 filter_Reg_m_B3_n16
*442 filter_Reg_m_B3_n15
*443 filter_Reg_m_B3_n14
*444 filter_Reg_m_B3_n13
*445 filter_Reg_m_B3_n12
*446 filter_Reg_m_B3_n11
*447 filter_Reg_m_B3_n10
*448 filter_Reg_m_B3_n9
*449 filter_Reg_m_B3_n8
*450 filter_Reg_m_B3_n7
*451 filter_Reg_m_B3_n6
*452 filter_Reg_m_B3_n5
*453 filter_Reg_m_B3_n4
*454 filter_Reg_m_B3_n3
*455 filter_Reg_m_B3_n2
*456 filter_Reg_m_B3_n1
*457 filter_Reg_s_A1_reg_delay3_n44
*458 filter_Reg_s_A1_reg_delay3_n43
*459 filter_Reg_s_A1_reg_delay3_n42
*460 filter_Reg_s_A1_reg_delay3_n41
*461 filter_Reg_s_A1_reg_delay3_n40
*462 filter_Reg_s_A1_reg_delay3_n39
*463 filter_Reg_s_A1_reg_delay3_n38
*464 filter_Reg_s_A1_reg_delay3_n37
*465 filter_Reg_s_A1_reg_delay3_n36
*466 filter_Reg_s_A1_reg_delay3_n35
*467 filter_Reg_s_A1_reg_delay3_n34
*468 filter_Reg_s_A1_reg_delay3_n33
*469 filter_Reg_s_A1_reg_delay3_n32
*470 filter_Reg_s_A1_reg_delay3_n31
*471 filter_Reg_s_A1_reg_delay3_n30
*472 filter_Reg_s_A1_reg_delay3_n13
*473 filter_Reg_s_A1_reg_delay3_n12
*474 filter_Reg_s_A1_reg_delay3_n11
*475 filter_Reg_s_A1_reg_delay3_n10
*476 filter_Reg_s_A1_reg_delay3_n9
*477 filter_Reg_s_A1_reg_delay3_n8
*478 filter_Reg_s_A1_reg_delay3_n7
*479 filter_Reg_s_A1_reg_delay3_n6
*480 filter_Reg_s_A1_reg_delay3_n5
*481 filter_Reg_s_A1_reg_delay3_n4
*482 filter_Reg_s_A1_reg_delay3_n3
*483 filter_Reg_s_A1_reg_delay3_n2
*484 filter_Reg_s_A1_reg_delay3_n1
*485 filter_Reg_m_B4_n56
*486 filter_Reg_m_B4_n55
*487 filter_Reg_m_B4_n54
*488 filter_Reg_m_B4_n53
*489 filter_Reg_m_B4_n52
*490 filter_Reg_m_B4_n51
*491 filter_Reg_m_B4_n50
*492 filter_Reg_m_B4_n49
*493 filter_Reg_m_B4_n48
*494 filter_Reg_m_B4_n47
*495 filter_Reg_m_B4_n46
*496 filter_Reg_m_B4_n45
*497 filter_Reg_m_B4_n44
*498 filter_Reg_m_B4_n43
*499 filter_Reg_m_B4_n42
*500 filter_Reg_m_B4_n41
*501 filter_Reg_m_B4_n40
*502 filter_Reg_m_B4_n39
*503 filter_Reg_m_B4_n38
*504 filter_Reg_m_B4_n17
*505 filter_Reg_m_B4_n16
*506 filter_Reg_m_B4_n15
*507 filter_Reg_m_B4_n14
*508 filter_Reg_m_B4_n13
*509 filter_Reg_m_B4_n12
*510 filter_Reg_m_B4_n11
*511 filter_Reg_m_B4_n10
*512 filter_Reg_m_B4_n9
*513 filter_Reg_m_B4_n8
*514 filter_Reg_m_B4_n7
*515 filter_Reg_m_B4_n6
*516 filter_Reg_m_B4_n5
*517 filter_Reg_m_B4_n4
*518 filter_Reg_m_B4_n3
*519 filter_Reg_m_B4_n2
*520 filter_Reg_m_B4_n1
*521 filter_Reg_s_B1_n56
*522 filter_Reg_s_B1_n55
*523 filter_Reg_s_B1_n54
*524 filter_Reg_s_B1_n53
*525 filter_Reg_s_B1_n52
*526 filter_Reg_s_B1_n51
*527 filter_Reg_s_B1_n50
*528 filter_Reg_s_B1_n49
*529 filter_Reg_s_B1_n48
*530 filter_Reg_s_B1_n47
*531 filter_Reg_s_B1_n46
*532 filter_Reg_s_B1_n45
*533 filter_Reg_s_B1_n44
*534 filter_Reg_s_B1_n43
*535 filter_Reg_s_B1_n42
*536 filter_Reg_s_B1_n41
*537 filter_Reg_s_B1_n40
*538 filter_Reg_s_B1_n39
*539 filter_Reg_s_B1_n38
*540 filter_Reg_s_B1_n17
*541 filter_Reg_s_B1_n16
*542 filter_Reg_s_B1_n15
*543 filter_Reg_s_B1_n14
*544 filter_Reg_s_B1_n13
*545 filter_Reg_s_B1_n12
*546 filter_Reg_s_B1_n11
*547 filter_Reg_s_B1_n10
*548 filter_Reg_s_B1_n9
*549 filter_Reg_s_B1_n8
*550 filter_Reg_s_B1_n7
*551 filter_Reg_s_B1_n6
*552 filter_Reg_s_B1_n5
*553 filter_Reg_s_B1_n4
*554 filter_Reg_s_B1_n3
*555 filter_Reg_s_B1_n2
*556 filter_Reg_s_B1_n1
*557 filter_Reg_out_n41
*558 filter_Reg_out_n40
*559 filter_Reg_out_n39
*560 filter_Reg_out_n38
*561 filter_Reg_out_n37
*562 filter_Reg_out_n36
*563 filter_Reg_out_n35
*564 filter_Reg_out_n34
*565 filter_Reg_out_n33
*566 filter_Reg_out_n32
*567 filter_Reg_out_n31
*568 filter_Reg_out_n30
*569 filter_Reg_out_n29
*570 filter_Reg_out_n28
*571 filter_Reg_out_n12
*572 filter_Reg_out_n11
*573 filter_Reg_out_n10
*574 filter_Reg_out_n9
*575 filter_Reg_out_n8
*576 filter_Reg_out_n7
*577 filter_Reg_out_n6
*578 filter_Reg_out_n5
*579 filter_Reg_out_n4
*580 filter_Reg_out_n3
*581 filter_Reg_out_n2
*582 filter_Reg_out_n1
*583 filter_Reg_ctrl_1_n4
*584 filter_Reg_ctrl_1_n3
*585 filter_Reg_ctrl_2_n6
*586 filter_Reg_ctrl_2_n5
*587 filter_Reg_ctrl_3_n6
*588 filter_Reg_ctrl_3_n5
*589 filter_Reg_ctrl_3_n1
*590 filter_Reg_ctrl_VOUT_n6
*591 filter_Reg_ctrl_VOUT_n5
*592 filter_add_228_n13
*593 filter_add_228_n12
*594 filter_add_228_n11
*595 filter_add_228_n10
*596 filter_add_228_n9
*597 filter_add_228_n8
*598 filter_add_228_n7
*599 filter_add_228_n6
*600 filter_add_228_n5
*601 filter_add_228_n4
*602 filter_add_228_n3
*603 filter_add_228_n2
*604 filter_add_228_n1
*605 filter_add_124_n13
*606 filter_add_124_n12
*607 filter_add_124_n11
*608 filter_add_124_n10
*609 filter_add_124_n9
*610 filter_add_124_n8
*611 filter_add_124_n7
*612 filter_add_124_n6
*613 filter_add_124_n5
*614 filter_add_124_n4
*615 filter_add_124_n3
*616 filter_add_124_n2
*617 filter_add_124_n1
*618 filter_add_99_n2
*619 filter_add_1_root_add_0_root_add_219_n2
*620 filter_add_2_root_add_0_root_add_219_n2
*621 filter_add_0_root_add_0_root_add_219_n2
*622 filter_mult_203_n884
*623 filter_mult_203_n883
*624 filter_mult_203_n882
*625 filter_mult_203_n881
*626 filter_mult_203_n880
*627 filter_mult_203_n879
*628 filter_mult_203_n878
*629 filter_mult_203_n877
*630 filter_mult_203_n872
*631 filter_mult_203_n871
*632 filter_mult_203_n870
*633 filter_mult_203_n869
*634 filter_mult_203_n868
*635 filter_mult_203_n867
*636 filter_mult_203_n866
*637 filter_mult_203_n865
*638 filter_mult_203_n864
*639 filter_mult_203_n863
*640 filter_mult_203_n862
*641 filter_mult_203_n861
*642 filter_mult_203_n860
*643 filter_mult_203_n859
*644 filter_mult_203_n858
*645 filter_mult_203_n857
*646 filter_mult_203_n856
*647 filter_mult_203_n855
*648 filter_mult_203_n854
*649 filter_mult_203_n853
*650 filter_mult_203_n852
*651 filter_mult_203_n851
*652 filter_mult_203_n850
*653 filter_mult_203_n849
*654 filter_mult_203_n848
*655 filter_mult_203_n847
*656 filter_mult_203_n846
*657 filter_mult_203_n845
*658 filter_mult_203_n844
*659 filter_mult_203_n843
*660 filter_mult_203_n842
*661 filter_mult_203_n841
*662 filter_mult_203_n840
*663 filter_mult_203_n839
*664 filter_mult_203_n838
*665 filter_mult_203_n837
*666 filter_mult_203_n836
*667 filter_mult_203_n835
*668 filter_mult_203_n834
*669 filter_mult_203_n833
*670 filter_mult_203_n832
*671 filter_mult_203_n831
*672 filter_mult_203_n830
*673 filter_mult_203_n829
*674 filter_mult_203_n828
*675 filter_mult_203_n827
*676 filter_mult_203_n826
*677 filter_mult_203_n825
*678 filter_mult_203_n824
*679 filter_mult_203_n823
*680 filter_mult_203_n822
*681 filter_mult_203_n821
*682 filter_mult_203_n820
*683 filter_mult_203_n819
*684 filter_mult_203_n818
*685 filter_mult_203_n817
*686 filter_mult_203_n816
*687 filter_mult_203_n815
*688 filter_mult_203_n814
*689 filter_mult_203_n813
*690 filter_mult_203_n812
*691 filter_mult_203_n811
*692 filter_mult_203_n810
*693 filter_mult_203_n809
*694 filter_mult_203_n808
*695 filter_mult_203_n807
*696 filter_mult_203_n806
*697 filter_mult_203_n805
*698 filter_mult_203_n804
*699 filter_mult_203_n803
*700 filter_mult_203_n802
*701 filter_mult_203_n801
*702 filter_mult_203_n800
*703 filter_mult_203_n799
*704 filter_mult_203_n798
*705 filter_mult_203_n797
*706 filter_mult_203_n796
*707 filter_mult_203_n795
*708 filter_mult_203_n794
*709 filter_mult_203_n793
*710 filter_mult_203_n792
*711 filter_mult_203_n791
*712 filter_mult_203_n790
*713 filter_mult_203_n789
*714 filter_mult_203_n787
*715 filter_mult_203_n786
*716 filter_mult_203_n785
*717 filter_mult_203_n784
*718 filter_mult_203_n783
*719 filter_mult_203_n782
*720 filter_mult_203_n781
*721 filter_mult_203_n780
*722 filter_mult_203_n779
*723 filter_mult_203_n778
*724 filter_mult_203_n777
*725 filter_mult_203_n776
*726 filter_mult_203_n775
*727 filter_mult_203_n774
*728 filter_mult_203_n773
*729 filter_mult_203_n772
*730 filter_mult_203_n771
*731 filter_mult_203_n770
*732 filter_mult_203_n768
*733 filter_mult_203_n767
*734 filter_mult_203_n766
*735 filter_mult_203_n765
*736 filter_mult_203_n764
*737 filter_mult_203_n763
*738 filter_mult_203_n762
*739 filter_mult_203_n761
*740 filter_mult_203_n760
*741 filter_mult_203_n759
*742 filter_mult_203_n758
*743 filter_mult_203_n757
*744 filter_mult_203_n756
*745 filter_mult_203_n755
*746 filter_mult_203_n754
*747 filter_mult_203_n752
*748 filter_mult_203_n751
*749 filter_mult_203_n750
*750 filter_mult_203_n749
*751 filter_mult_203_n747
*752 filter_mult_203_n745
*753 filter_mult_203_n744
*754 filter_mult_203_n743
*755 filter_mult_203_n742
*756 filter_mult_203_n741
*757 filter_mult_203_n740
*758 filter_mult_203_n739
*759 filter_mult_203_n738
*760 filter_mult_203_n737
*761 filter_mult_203_n736
*762 filter_mult_203_n735
*763 filter_mult_203_n734
*764 filter_mult_203_n733
*765 filter_mult_203_n732
*766 filter_mult_203_n731
*767 filter_mult_203_n730
*768 filter_mult_203_n729
*769 filter_mult_203_n728
*770 filter_mult_203_n726
*771 filter_mult_203_n725
*772 filter_mult_203_n724
*773 filter_mult_203_n723
*774 filter_mult_203_n722
*775 filter_mult_203_n721
*776 filter_mult_203_n720
*777 filter_mult_203_n719
*778 filter_mult_203_n718
*779 filter_mult_203_n717
*780 filter_mult_203_n716
*781 filter_mult_203_n715
*782 filter_mult_203_n714
*783 filter_mult_203_n713
*784 filter_mult_203_n712
*785 filter_mult_203_n711
*786 filter_mult_203_n710
*787 filter_mult_203_n709
*788 filter_mult_203_n708
*789 filter_mult_203_n707
*790 filter_mult_203_n706
*791 filter_mult_203_n705
*792 filter_mult_203_n704
*793 filter_mult_203_n703
*794 filter_mult_203_n702
*795 filter_mult_203_n701
*796 filter_mult_203_n700
*797 filter_mult_203_n699
*798 filter_mult_203_n697
*799 filter_mult_203_n696
*800 filter_mult_203_n695
*801 filter_mult_203_n694
*802 filter_mult_203_n693
*803 filter_mult_203_n692
*804 filter_mult_203_n691
*805 filter_mult_203_n690
*806 filter_mult_203_n689
*807 filter_mult_203_n688
*808 filter_mult_203_n687
*809 filter_mult_203_n686
*810 filter_mult_203_n685
*811 filter_mult_203_n684
*812 filter_mult_203_n683
*813 filter_mult_203_n682
*814 filter_mult_203_n681
*815 filter_mult_203_n680
*816 filter_mult_203_n679
*817 filter_mult_203_n678
*818 filter_mult_203_n677
*819 filter_mult_203_n673
*820 filter_mult_203_n672
*821 filter_mult_203_n671
*822 filter_mult_203_n670
*823 filter_mult_203_n654
*824 filter_mult_203_n653
*825 filter_mult_203_n652
*826 filter_mult_203_n651
*827 filter_mult_203_n650
*828 filter_mult_203_n649
*829 filter_mult_203_n648
*830 filter_mult_203_n647
*831 filter_mult_203_n646
*832 filter_mult_203_n645
*833 filter_mult_203_n644
*834 filter_mult_203_n642
*835 filter_mult_203_n641
*836 filter_mult_203_n640
*837 filter_mult_203_n639
*838 filter_mult_203_n638
*839 filter_mult_203_n637
*840 filter_mult_203_n636
*841 filter_mult_203_n635
*842 filter_mult_203_n634
*843 filter_mult_203_n633
*844 filter_mult_203_n631
*845 filter_mult_203_n630
*846 filter_mult_203_n629
*847 filter_mult_203_n628
*848 filter_mult_203_n627
*849 filter_mult_203_n403
*850 filter_mult_203_n402
*851 filter_mult_203_n401
*852 filter_mult_203_n400
*853 filter_mult_203_n399
*854 filter_mult_203_n398
*855 filter_mult_203_n397
*856 filter_mult_203_n396
*857 filter_mult_203_n395
*858 filter_mult_203_n394
*859 filter_mult_203_n393
*860 filter_mult_203_n392
*861 filter_mult_203_n391
*862 filter_mult_203_n390
*863 filter_mult_203_n387
*864 filter_mult_203_n386
*865 filter_mult_203_n385
*866 filter_mult_203_n384
*867 filter_mult_203_n383
*868 filter_mult_203_n382
*869 filter_mult_203_n381
*870 filter_mult_203_n380
*871 filter_mult_203_n379
*872 filter_mult_203_n378
*873 filter_mult_203_n377
*874 filter_mult_203_n376
*875 filter_mult_203_n375
*876 filter_mult_203_n374
*877 filter_mult_203_n373
*878 filter_mult_203_n372
*879 filter_mult_203_n371
*880 filter_mult_203_n370
*881 filter_mult_203_n369
*882 filter_mult_203_n368
*883 filter_mult_203_n367
*884 filter_mult_203_n366
*885 filter_mult_203_n365
*886 filter_mult_203_n364
*887 filter_mult_203_n363
*888 filter_mult_203_n362
*889 filter_mult_203_n361
*890 filter_mult_203_n360
*891 filter_mult_203_n359
*892 filter_mult_203_n357
*893 filter_mult_203_n356
*894 filter_mult_203_n354
*895 filter_mult_203_n353
*896 filter_mult_203_n352
*897 filter_mult_203_n351
*898 filter_mult_203_n350
*899 filter_mult_203_n349
*900 filter_mult_203_n348
*901 filter_mult_203_n347
*902 filter_mult_203_n346
*903 filter_mult_203_n345
*904 filter_mult_203_n344
*905 filter_mult_203_n343
*906 filter_mult_203_n342
*907 filter_mult_203_n341
*908 filter_mult_203_n340
*909 filter_mult_203_n339
*910 filter_mult_203_n337
*911 filter_mult_203_n336
*912 filter_mult_203_n335
*913 filter_mult_203_n334
*914 filter_mult_203_n333
*915 filter_mult_203_n332
*916 filter_mult_203_n331
*917 filter_mult_203_n330
*918 filter_mult_203_n329
*919 filter_mult_203_n328
*920 filter_mult_203_n327
*921 filter_mult_203_n326
*922 filter_mult_203_n325
*923 filter_mult_203_n324
*924 filter_mult_203_n323
*925 filter_mult_203_n322
*926 filter_mult_203_n320
*927 filter_mult_203_n319
*928 filter_mult_203_n318
*929 filter_mult_203_n317
*930 filter_mult_203_n316
*931 filter_mult_203_n315
*932 filter_mult_203_n314
*933 filter_mult_203_n312
*934 filter_mult_203_n311
*935 filter_mult_203_n310
*936 filter_mult_203_n309
*937 filter_mult_203_n308
*938 filter_mult_203_n307
*939 filter_mult_203_n306
*940 filter_mult_203_n305
*941 filter_mult_203_n303
*942 filter_mult_203_n302
*943 filter_mult_203_n301
*944 filter_mult_203_n300
*945 filter_mult_203_n299
*946 filter_mult_203_n298
*947 filter_mult_203_n297
*948 filter_mult_203_n296
*949 filter_mult_203_n295
*950 filter_mult_203_n294
*951 filter_mult_203_n293
*952 filter_mult_203_n292
*953 filter_mult_203_n291
*954 filter_mult_203_n290
*955 filter_mult_203_n289
*956 filter_mult_203_n285
*957 filter_mult_203_n284
*958 filter_mult_203_n283
*959 filter_mult_203_n282
*960 filter_mult_203_n281
*961 filter_mult_203_n261
*962 filter_mult_203_n260
*963 filter_mult_203_n259
*964 filter_mult_203_n257
*965 filter_mult_203_n256
*966 filter_mult_203_n255
*967 filter_mult_203_n254
*968 filter_mult_203_n253
*969 filter_mult_203_n252
*970 filter_mult_203_n251
*971 filter_mult_203_n250
*972 filter_mult_203_n249
*973 filter_mult_203_n248
*974 filter_mult_203_n247
*975 filter_mult_203_n246
*976 filter_mult_203_n245
*977 filter_mult_203_n244
*978 filter_mult_203_n243
*979 filter_mult_203_n242
*980 filter_mult_203_n241
*981 filter_mult_203_n240
*982 filter_mult_203_n239
*983 filter_mult_203_n238
*984 filter_mult_203_n237
*985 filter_mult_203_n236
*986 filter_mult_203_n235
*987 filter_mult_203_n234
*988 filter_mult_203_n233
*989 filter_mult_203_n232
*990 filter_mult_203_n231
*991 filter_mult_203_n230
*992 filter_mult_203_n229
*993 filter_mult_203_n228
*994 filter_mult_203_n227
*995 filter_mult_203_n226
*996 filter_mult_203_n225
*997 filter_mult_203_n224
*998 filter_mult_203_n223
*999 filter_mult_203_n222
*1000 filter_mult_203_n221
*1001 filter_mult_203_n220
*1002 filter_mult_203_n219
*1003 filter_mult_203_n218
*1004 filter_mult_203_n217
*1005 filter_mult_203_n216
*1006 filter_mult_203_n215
*1007 filter_mult_203_n214
*1008 filter_mult_203_n213
*1009 filter_mult_203_n212
*1010 filter_mult_203_n211
*1011 filter_mult_203_n210
*1012 filter_mult_203_n209
*1013 filter_mult_203_n208
*1014 filter_mult_203_n207
*1015 filter_mult_203_n206
*1016 filter_mult_203_n205
*1017 filter_mult_203_n204
*1018 filter_mult_203_n203
*1019 filter_mult_203_n202
*1020 filter_mult_203_n201
*1021 filter_mult_203_n200
*1022 filter_mult_203_n199
*1023 filter_mult_203_n198
*1024 filter_mult_203_n197
*1025 filter_mult_203_n196
*1026 filter_mult_203_n195
*1027 filter_mult_203_n194
*1028 filter_mult_203_n193
*1029 filter_mult_203_n192
*1030 filter_mult_203_n191
*1031 filter_mult_203_n190
*1032 filter_mult_203_n189
*1033 filter_mult_203_n188
*1034 filter_mult_203_n187
*1035 filter_mult_203_n186
*1036 filter_mult_203_n185
*1037 filter_mult_203_n184
*1038 filter_mult_203_n183
*1039 filter_mult_203_n182
*1040 filter_mult_203_n181
*1041 filter_mult_203_n180
*1042 filter_mult_203_n179
*1043 filter_mult_203_n178
*1044 filter_mult_203_n177
*1045 filter_mult_203_n176
*1046 filter_mult_203_n175
*1047 filter_mult_203_n174
*1048 filter_mult_203_n173
*1049 filter_mult_203_n172
*1050 filter_mult_203_n171
*1051 filter_mult_203_n170
*1052 filter_mult_203_n169
*1053 filter_mult_203_n168
*1054 filter_mult_203_n167
*1055 filter_mult_203_n166
*1056 filter_mult_203_n165
*1057 filter_mult_203_n164
*1058 filter_mult_203_n163
*1059 filter_mult_203_n162
*1060 filter_mult_203_n161
*1061 filter_mult_203_n160
*1062 filter_mult_203_n159
*1063 filter_mult_203_n158
*1064 filter_mult_203_n157
*1065 filter_mult_203_n156
*1066 filter_mult_203_n155
*1067 filter_mult_203_n154
*1068 filter_mult_203_n153
*1069 filter_mult_203_n152
*1070 filter_mult_203_n151
*1071 filter_mult_203_n150
*1072 filter_mult_203_n149
*1073 filter_mult_203_n148
*1074 filter_mult_203_n147
*1075 filter_mult_203_n146
*1076 filter_mult_203_n145
*1077 filter_mult_203_n144
*1078 filter_mult_203_n143
*1079 filter_mult_203_n142
*1080 filter_mult_203_n140
*1081 filter_mult_203_n139
*1082 filter_mult_203_n138
*1083 filter_mult_203_n137
*1084 filter_mult_203_n136
*1085 filter_mult_203_n135
*1086 filter_mult_203_n134
*1087 filter_mult_203_n133
*1088 filter_mult_203_n132
*1089 filter_mult_203_n131
*1090 filter_mult_203_n130
*1091 filter_mult_203_n129
*1092 filter_mult_203_n128
*1093 filter_mult_203_n127
*1094 filter_mult_203_n126
*1095 filter_mult_203_n125
*1096 filter_mult_203_n124
*1097 filter_mult_203_n123
*1098 filter_mult_203_n122
*1099 filter_mult_203_n121
*1100 filter_mult_203_n120
*1101 filter_mult_203_n118
*1102 filter_mult_203_n117
*1103 filter_mult_203_n116
*1104 filter_mult_203_n115
*1105 filter_mult_203_n114
*1106 filter_mult_203_n113
*1107 filter_mult_203_n112
*1108 filter_mult_203_n111
*1109 filter_mult_203_n110
*1110 filter_mult_203_n109
*1111 filter_mult_203_n108
*1112 filter_mult_203_n107
*1113 filter_mult_203_n106
*1114 filter_mult_203_n105
*1115 filter_mult_203_n104
*1116 filter_mult_203_n103
*1117 filter_mult_203_n102
*1118 filter_mult_203_n100
*1119 filter_mult_203_n99
*1120 filter_mult_203_n98
*1121 filter_mult_203_n97
*1122 filter_mult_203_n96
*1123 filter_mult_203_n95
*1124 filter_mult_203_n94
*1125 filter_mult_203_n93
*1126 filter_mult_203_n92
*1127 filter_mult_203_n91
*1128 filter_mult_203_n90
*1129 filter_mult_203_n89
*1130 filter_mult_203_n88
*1131 filter_mult_203_n86
*1132 filter_mult_203_n85
*1133 filter_mult_203_n84
*1134 filter_mult_203_n83
*1135 filter_mult_203_n82
*1136 filter_mult_203_n81
*1137 filter_mult_203_n80
*1138 filter_mult_203_n79
*1139 filter_mult_203_n78
*1140 filter_mult_203_n77
*1141 filter_mult_203_n75
*1142 filter_mult_203_n74
*1143 filter_mult_203_n61
*1144 filter_mult_203_n60
*1145 filter_mult_203_n59
*1146 filter_mult_203_n58
*1147 filter_mult_203_n57
*1148 filter_mult_203_n56
*1149 filter_mult_203_n55
*1150 filter_mult_203_n54