*SPEF "IEEE 1481-1998"
*DESIGN "IIR_filter"
*DATE "Sun Nov 17 18:26:28 2019"
*VENDOR "Cadence Design Systems, Inc."
*PROGRAM "Innovus"
*VERSION "17.11-s080_1"
*DESIGN_FLOW "COUPLING C" "PIN_CAP NONE" "NAME_SCOPE LOCAL"
*DIVIDER /
*DELIMITER :
*BUS_DELIMITER []
*T_UNIT 1 NS
*C_UNIT 1 PF
*R_UNIT 1 OHM
*L_UNIT 1 HENRY

// MMMC spef file for corner 'my_rc'

*NAME_MAP

*1 DIN[11]
*2 DIN[10]
*3 DIN[9]
*4 DIN[8]
*5 DIN[7]
*6 DIN[6]
*7 DIN[5]
*8 DIN[4]
*9 DIN[3]
*10 DIN[2]
*11 DIN[1]
*12 DIN[0]
*13 CLK
*14 RST_n
*15 VIN
*16 DOUT[11]
*17 DOUT[10]
*18 DOUT[9]
*19 DOUT[8]
*20 DOUT[7]
*21 DOUT[6]
*22 DOUT[5]
*23 DOUT[4]
*24 DOUT[3]
*25 DOUT[2]
*26 DOUT[1]
*27 DOUT[0]
*28 VOUT
*29 FE_OFN3_filter_v2_12
*30 FE_OFN2_filter_v1_12
*31 FE_OFN1_filter_v2_1
*32 FE_OFN0_filter_v1_1
*33 FE_DBTN12_RST_n
*34 FE_DBTN11_filter_v1_0
*35 FE_DBTN10_filter_v1_3
*36 FE_DBTN9_filter_v1_5
*37 FE_DBTN8_filter_v1_7
*38 FE_DBTN7_filter_v1_9
*39 FE_DBTN6_filter_v1_11
*40 FE_DBTN5_filter_v2_0
*41 FE_DBTN4_filter_v2_3
*42 FE_DBTN3_filter_v2_5
*43 FE_DBTN2_filter_v2_7
*44 FE_DBTN1_filter_v2_9
*45 FE_DBTN0_filter_v2_11
*46 filter_v1a0_f_11_
*47 filter_v1a0_f_12_
*48 filter_v1a0_f_13_
*49 filter_v1a0_f_14_
*50 filter_v1a0_f_15_
*51 filter_v1a0_f_16_
*52 filter_v1a0_f_17_
*53 filter_v1a0_f_18_
*54 filter_v1a0_f_19_
*55 filter_v1a0_f_20_
*56 filter_v1a0_f_21_
*57 filter_v1a0_f_22_
*58 filter_v2a1_f_11_
*59 filter_v2a1_f_12_
*60 filter_v2a1_f_13_
*61 filter_v2a1_f_14_
*62 filter_v2a1_f_15_
*63 filter_v2a1_f_16_
*64 filter_v2a1_f_17_
*65 filter_v2a1_f_18_
*66 filter_v2a1_f_19_
*67 filter_v2a1_f_20_
*68 filter_v2a1_f_21_
*69 filter_v2a1_f_22_
*70 filter_v1b1_f_11_
*71 filter_v1b1_f_12_
*72 filter_v1b1_f_13_
*73 filter_v1b1_f_14_
*74 filter_v1b1_f_15_
*75 filter_v1b1_f_16_
*76 filter_v1b1_f_17_
*77 filter_v1b1_f_18_
*78 filter_v1b1_f_19_
*79 filter_v1b1_f_20_
*80 filter_v1b1_f_21_
*81 filter_v1b1_f_22_
*82 filter_v1b1_piu_v2b2_0_
*83 filter_v1b1_piu_v2b2_10_
*84 filter_v1b1_piu_v2b2_11_
*85 filter_v1b1_piu_v2b2_1_
*86 filter_v1b1_piu_v2b2_2_
*87 filter_v1b1_piu_v2b2_3_
*88 filter_v1b1_piu_v2b2_4_
*89 filter_v1b1_piu_v2b2_5_
*90 filter_v1b1_piu_v2b2_6_
*91 filter_v1b1_piu_v2b2_7_
*92 filter_v1b1_piu_v2b2_8_
*93 filter_v1b1_piu_v2b2_9_
*94 filter_v2b2_f_11_
*95 filter_v2b2_f_12_
*96 filter_v2b2_f_13_
*97 filter_v2b2_f_14_
*98 filter_v2b2_f_15_
*99 filter_v2b2_f_16_
*100 filter_v2b2_f_17_
*101 filter_v2b2_f_18_
*102 filter_v2b2_f_19_
*103 filter_v2b2_f_20_
*104 filter_v2b2_f_21_
*105 filter_v2b2_f_22_
*106 filter_vb0_f_11_
*107 filter_vb0_f_12_
*108 filter_vb0_f_13_
*109 filter_vb0_f_14_
*110 filter_vb0_f_15_
*111 filter_vb0_f_16_
*112 filter_vb0_f_17_
*113 filter_vb0_f_18_
*114 filter_vb0_f_19_
*115 filter_vb0_f_20_
*116 filter_vb0_f_21_
*117 filter_vb0_f_22_
*118 filter_Reg_ctrl_1_out
*119 filter_Reg_in_n12
*120 filter_Reg_in_n11
*121 filter_Reg_in_n10
*122 filter_Reg_in_n9
*123 filter_Reg_in_n8
*124 filter_Reg_in_n7
*125 filter_Reg_in_n6
*126 filter_Reg_in_n5
*127 filter_Reg_in_n4
*128 filter_Reg_in_n3
*129 filter_Reg_in_n2
*130 filter_Reg_in_n1
*131 filter_Reg_in_n27
*132 filter_Reg_in_n26
*133 filter_Reg_in_n25
*134 filter_Reg_in_n24
*135 filter_Reg_in_n23
*136 filter_Reg_in_n22
*137 filter_Reg_in_n21
*138 filter_Reg_in_n20
*139 filter_Reg_in_n19
*140 filter_Reg_in_n18
*141 filter_Reg_in_n17
*142 filter_Reg_in_n16
*143 filter_Reg_in_n15
*144 filter_Reg_in_n14
*145 filter_Reg_delay_1_n13
*146 filter_Reg_delay_1_n12
*147 filter_Reg_delay_1_n11
*148 filter_Reg_delay_1_n10
*149 filter_Reg_delay_1_n9
*150 filter_Reg_delay_1_n8
*151 filter_Reg_delay_1_n7
*152 filter_Reg_delay_1_n6
*153 filter_Reg_delay_1_n5
*154 filter_Reg_delay_1_n4
*155 filter_Reg_delay_1_n3
*156 filter_Reg_delay_1_n2
*157 filter_Reg_delay_1_n1
*158 filter_Reg_delay_1_n29
*159 filter_Reg_delay_1_n28
*160 filter_Reg_delay_1_n27
*161 filter_Reg_delay_1_n26
*162 filter_Reg_delay_1_n25
*163 filter_Reg_delay_1_n24
*164 filter_Reg_delay_1_n23
*165 filter_Reg_delay_1_n22
*166 filter_Reg_delay_1_n21
*167 filter_Reg_delay_1_n20
*168 filter_Reg_delay_1_n19
*169 filter_Reg_delay_1_n18
*170 filter_Reg_delay_1_n17
*171 filter_Reg_delay_1_n16
*172 filter_Reg_delay_1_n15
*173 filter_Reg_delay_2_n44
*174 filter_Reg_delay_2_n43
*175 filter_Reg_delay_2_n42
*176 filter_Reg_delay_2_n41
*177 filter_Reg_delay_2_n40
*178 filter_Reg_delay_2_n39
*179 filter_Reg_delay_2_n38
*180 filter_Reg_delay_2_n37
*181 filter_Reg_delay_2_n36
*182 filter_Reg_delay_2_n35
*183 filter_Reg_delay_2_n34
*184 filter_Reg_delay_2_n33
*185 filter_Reg_delay_2_n32
*186 filter_Reg_delay_2_n31
*187 filter_Reg_delay_2_n30
*188 filter_Reg_delay_2_n13
*189 filter_Reg_delay_2_n12
*190 filter_Reg_delay_2_n11
*191 filter_Reg_delay_2_n10
*192 filter_Reg_delay_2_n9
*193 filter_Reg_delay_2_n8
*194 filter_Reg_delay_2_n7
*195 filter_Reg_delay_2_n6
*196 filter_Reg_delay_2_n5
*197 filter_Reg_delay_2_n4
*198 filter_Reg_delay_2_n3
*199 filter_Reg_delay_2_n2
*200 filter_Reg_delay_2_n1
*201 filter_Reg_out_n41
*202 filter_Reg_out_n40
*203 filter_Reg_out_n39
*204 filter_Reg_out_n38
*205 filter_Reg_out_n37
*206 filter_Reg_out_n36
*207 filter_Reg_out_n35
*208 filter_Reg_out_n34
*209 filter_Reg_out_n33
*210 filter_Reg_out_n32
*211 filter_Reg_out_n31
*212 filter_Reg_out_n30
*213 filter_Reg_out_n29
*214 filter_Reg_out_n28
*215 filter_Reg_out_n12
*216 filter_Reg_out_n11
*217 filter_Reg_out_n10
*218 filter_Reg_out_n9
*219 filter_Reg_out_n8
*220 filter_Reg_out_n7
*221 filter_Reg_out_n6
*222 filter_Reg_out_n5
*223 filter_Reg_out_n4
*224 filter_Reg_out_n3
*225 filter_Reg_out_n2
*226 filter_Reg_out_n1
*227 filter_Reg_ctrl_1_n4
*228 filter_Reg_ctrl_1_n3
*229 filter_Reg_ctrl_2_n6
*230 filter_Reg_ctrl_2_n5
*231 filter_mult_116_n568
*232 filter_mult_116_n567
*233 filter_mult_116_n566
*234 filter_mult_116_n565
*235 filter_mult_116_n564
*236 filter_mult_116_n563
*237 filter_mult_116_n561
*238 filter_mult_116_n560
*239 filter_mult_116_n559
*240 filter_mult_116_n558
*241 filter_mult_116_n557
*242 filter_mult_116_n556
*243 filter_mult_116_n555
*244 filter_mult_116_n554
*245 filter_mult_116_n553
*246 filter_mult_116_n551
*247 filter_mult_116_n549
*248 filter_mult_116_n547
*249 filter_mult_116_n543
*250 filter_mult_116_n542
*251 filter_mult_116_n541
*252 filter_mult_116_n540
*253 filter_mult_116_n538
*254 filter_mult_116_n537
*255 filter_mult_116_n536
*256 filter_mult_116_n535
*257 filter_mult_116_n534
*258 filter_mult_116_n532
*259 filter_mult_116_n531
*260 filter_mult_116_n530
*261 filter_mult_116_n528
*262 filter_mult_116_n527
*263 filter_mult_116_n526
*264 filter_mult_116_n525
*265 filter_mult_116_n524
*266 filter_mult_116_n523
*267 filter_mult_116_n522
*268 filter_mult_116_n521
*269 filter_mult_116_n520
*270 filter_mult_116_n519
*271 filter_mult_116_n518
*272 filter_mult_116_n517
*273 filter_mult_116_n516
*274 filter_mult_116_n515
*275 filter_mult_116_n514
*276 filter_mult_116_n513
*277 filter_mult_116_n512
*278 filter_mult_116_n510
*279 filter_mult_116_n509
*280 filter_mult_116_n508
*281 filter_mult_116_n507
*282 filter_mult_116_n506
*283 filter_mult_116_n505
*284 filter_mult_116_n504
*285 filter_mult_116_n503
*286 filter_mult_116_n502
*287 filter_mult_116_n499
*288 filter_mult_116_n498
*289 filter_mult_116_n497
*290 filter_mult_116_n496
*291 filter_mult_116_n495
*292 filter_mult_116_n494
*293 filter_mult_116_n493
*294 filter_mult_116_n492
*295 filter_mult_116_n491
*296 filter_mult_116_n490
*297 filter_mult_116_n489
*298 filter_mult_116_n488
*299 filter_mult_116_n487
*300 filter_mult_116_n486
*301 filter_mult_116_n485
*302 filter_mult_116_n484
*303 filter_mult_116_n483
*304 filter_mult_116_n482
*305 filter_mult_116_n481
*306 filter_mult_116_n480
*307 filter_mult_116_n479
*308 filter_mult_116_n478
*309 filter_mult_116_n477
*310 filter_mult_116_n476
*311 filter_mult_116_n474
*312 filter_mult_116_n473
*313 filter_mult_116_n471
*314 filter_mult_116_n469
*315 filter_mult_116_n468
*316 filter_mult_116_n467
*317 filter_mult_116_n465
*318 filter_mult_116_n464
*319 filter_mult_116_n463
*320 filter_mult_116_n462
*321 filter_mult_116_n461
*322 filter_mult_116_n460
*323 filter_mult_116_n459
*324 filter_mult_116_n458
*325 filter_mult_116_n457
*326 filter_mult_116_n456
*327 filter_mult_116_n455
*328 filter_mult_116_n454
*329 filter_mult_116_n453
*330 filter_mult_116_n452
*331 filter_mult_116_n451
*332 filter_mult_116_n450
*333 filter_mult_116_n449
*334 filter_mult_116_n448
*335 filter_mult_116_n447
*336 filter_mult_116_n446
*337 filter_mult_116_n445
*338 filter_mult_116_n444
*339 filter_mult_116_n443
*340 filter_mult_116_n442
*341 filter_mult_116_n441
*342 filter_mult_116_n440
*343 filter_mult_116_n439
*344 filter_mult_116_n438
*345 filter_mult_116_n437
*346 filter_mult_116_n436
*347 filter_mult_116_n435
*348 filter_mult_116_n434
*349 filter_mult_116_n433
*350 filter_mult_116_n432
*351 filter_mult_116_n431
*352 filter_mult_116_n430
*353 filter_mult_116_n429
*354 filter_mult_116_n428
*355 filter_mult_116_n427
*356 filter_mult_116_n426
*357 filter_mult_116_n425
*358 filter_mult_116_n424
*359 filter_mult_116_n423
*360 filter_mult_116_n241
*361 filter_mult_116_n240
*362 filter_mult_116_n239
*363 filter_mult_116_n238
*364 filter_mult_116_n237
*365 filter_mult_116_n236
*366 filter_mult_116_n235
*367 filter_mult_116_n234
*368 filter_mult_116_n233
*369 filter_mult_116_n232
*370 filter_mult_116_n229
*371 filter_mult_116_n228
*372 filter_mult_116_n227
*373 filter_mult_116_n226
*374 filter_mult_116_n225
*375 filter_mult_116_n224
*376 filter_mult_116_n223
*377 filter_mult_116_n222
*378 filter_mult_116_n221
*379 filter_mult_116_n220
*380 filter_mult_116_n219
*381 filter_mult_116_n217
*382 filter_mult_116_n216
*383 filter_mult_116_n215
*384 filter_mult_116_n214
*385 filter_mult_116_n213
*386 filter_mult_116_n212
*387 filter_mult_116_n211
*388 filter_mult_116_n210
*389 filter_mult_116_n209
*390 filter_mult_116_n207
*391 filter_mult_116_n206
*392 filter_mult_116_n204
*393 filter_mult_116_n203
*394 filter_mult_116_n202
*395 filter_mult_116_n201
*396 filter_mult_116_n200
*397 filter_mult_116_n199
*398 filter_mult_116_n198
*399 filter_mult_116_n197
*400 filter_mult_116_n196
*401 filter_mult_116_n195
*402 filter_mult_116_n194
*403 filter_mult_116_n193
*404 filter_mult_116_n191
*405 filter_mult_116_n190
*406 filter_mult_116_n189
*407 filter_mult_116_n188
*408 filter_mult_116_n187
*409 filter_mult_116_n185
*410 filter_mult_116_n184
*411 filter_mult_116_n183
*412 filter_mult_116_n182
*413 filter_mult_116_n181
*414 filter_mult_116_n180
*415 filter_mult_116_n178
*416 filter_mult_116_n177
*417 filter_mult_116_n176
*418 filter_mult_116_n175
*419 filter_mult_116_n174
*420 filter_mult_116_n173
*421 filter_mult_116_n172
*422 filter_mult_116_n171
*423 filter_mult_116_n170
*424 filter_mult_116_n169
*425 filter_mult_116_n168
*426 filter_mult_116_n167
*427 filter_mult_116_n163
*428 filter_mult_116_n162
*429 filter_mult_116_n161
*430 filter_mult_116_n160
*431 filter_mult_116_n143
*432 filter_mult_116_n142
*433 filter_mult_116_n141
*434 filter_mult_116_n140
*435 filter_mult_116_n139
*436 filter_mult_116_n138
*437 filter_mult_116_n137
*438 filter_mult_116_n136
*439 filter_mult_116_n135
*440 filter_mult_116_n134
*441 filter_mult_116_n133
*442 filter_mult_116_n132
*443 filter_mult_116_n131
*444 filter_mult_116_n130
*445 filter_mult_116_n129
*446 filter_mult_116_n128
*447 filter_mult_116_n127
*448 filter_mult_116_n126
*449 filter_mult_116_n125
*450 filter_mult_116_n124
*451 filter_mult_116_n123
*452 filter_mult_116_n122
*453 filter_mult_116_n121
*454 filter_mult_116_n120
*455 filter_mult_116_n119
*456 filter_mult_116_n118
*457 filter_mult_116_n117
*458 filter_mult_116_n116
*459 filter_mult_116_n115
*460 filter_mult_116_n114
*461 filter_mult_116_n113
*462 filter_mult_116_n112
*463 filter_mult_116_n111
*464 filter_mult_116_n110
*465 filter_mult_116_n109
*466 filter_mult_116_n108
*467 filter_mult_116_n107
*468 filter_mult_116_n106
*469 filter_mult_116_n105
*470 filter_mult_116_n104
*471 filter_mult_116_n103
*472 filter_mult_116_n102
*473 filter_mult_116_n101
*474 filter_mult_116_n100
*475 filter_mult_116_n99
*476 filter_mult_116_n98
*477 filter_mult_116_n97
*478 filter_mult_116_n96
*479 filter_mult_116_n95
*480 filter_mult_116_n94
*481 filter_mult_116_n93
*482 filter_mult_116_n92
*483 filter_mult_116_n91
*484 filter_mult_116_n90
*485 filter_mult_116_n89
*486 filter_mult_116_n88
*487 filter_mult_116_n87
*488 filter_mult_116_n86
*489 filter_mult_116_n85
*490 filter_mult_116_n84
*491 filter_mult_116_n83
*492 filter_mult_116_n82
*493 filter_mult_116_n81
*494 filter_mult_116_n80
*495 filter_mult_116_n79
*496 filter_mult_116_n78
*497 filter_mult_116_n77
*498 filter_mult_116_n76
*499 filter_mult_116_n75
*500 filter_mult_116_n74
*501 filter_mult_116_n72
*502 filter_mult_116_n71
*503 filter_mult_116_n70
*504 filter_mult_116_n69
*505 filter_mult_116_n68
*506 filter_mult_116_n67
*507 filter_mult_116_n66
*508 filter_mult_116_n65
*509 filter_mult_116_n64
*510 filter_mult_116_n63
*511 filter_mult_116_n62
*512 filter_mult_116_n61
*513 filter_mult_116_n60
*514 filter_mult_116_n59
*515 filter_mult_116_n58
*516 filter_mult_116_n57
*517 filter_mult_116_n56
*518 filter_mult_116_n54
*519 filter_mult_116_n53
*520 filter_mult_116_n52
*521 filter_mult_116_n51
*522 filter_mult_116_n50
*523 filter_mult_116_n49
*524 filter_mult_116_n48
*525 filter_mult_116_n47
*526 filter_mult_116_n46
*527 filter_mult_116_n45
*528 filter_mult_116_n44
*529 filter_mult_116_n43
*530 filter_mult_116_n42
*531 filter_mult_116_n40
*532 filter_mult_116_n39
*533 filter_mult_116_n38
*534 filter_mult_116_n37
*535 filter_mult_116_n36
*536 filter_mult_116_n35
*537 filter_mult_116_n34
*538 filter_mult_116_n33
*539 filter_mult_116_n32
*540 filter_mult_116_n30
*541 filter_mult_116_n29
*542 filter_mult_116_n28
*543 filter_mult_116_n27
*544 filter_mult_116_n26
*545 filter_mult_116_n14
*546 filter_mult_116_n13
*547 filter_mult_116_n12
*548 filter_mult_116_n11
*549 filter_mult_116_n10
*550 filter_mult_116_n9
*551 filter_mult_116_n8
*552 filter_mult_116_n7
*553 filter_mult_116_n6
*554 filter_mult_116_n5
*555 filter_mult_116_n4
*556 filter_mult_126_n641
*557 filter_mult_126_n640
*558 filter_mult_126_n639
*559 filter_mult_126_n638
*560 filter_mult_126_n637
*561 filter_mult_126_n636
*562 filter_mult_126_n635
*563 filter_mult_126_n634
*564 filter_mult_126_n633
*565 filter_mult_126_n632
*566 filter_mult_126_n630
*567 filter_mult_126_n629
*568 filter_mult_126_n628
*569 filter_mult_126_n627
*570 filter_mult_126_n626
*571 filter_mult_126_n625
*572 filter_mult_126_n624
*573 filter_mult_126_n623
*574 filter_mult_126_n622
*575 filter_mult_126_n621
*576 filter_mult_126_n620
*577 filter_mult_126_n619
*578 filter_mult_126_n618
*579 filter_mult_126_n617
*580 filter_mult_126_n616
*581 filter_mult_126_n615
*582 filter_mult_126_n614
*583 filter_mult_126_n613
*584 filter_mult_126_n612
*585 filter_mult_126_n611
*586 filter_mult_126_n610
*587 filter_mult_126_n609
*588 filter_mult_126_n608
*589 filter_mult_126_n607
*590 filter_mult_126_n606
*591 filter_mult_126_n605
*592 filter_mult_126_n604
*593 filter_mult_126_n603
*594 filter_mult_126_n602
*595 filter_mult_126_n601
*596 filter_mult_126_n600
*597 filter_mult_126_n599
*598 filter_mult_126_n598
*599 filter_mult_126_n597
*600 filter_mult_126_n596
*601 filter_mult_126_n595
*602 filter_mult_126_n594
*603 filter_mult_126_n593
*604 filter_mult_126_n592
*605 filter_mult_126_n591
*606 filter_mult_126_n590
*607 filter_mult_126_n589
*608 filter_mult_126_n588
*609 filter_mult_126_n587
*610 filter_mult_126_n586
*611 filter_mult_126_n585
*612 filter_mult_126_n584
*613 filter_mult_126_n583
*614 filter_mult_126_n582
*615 filter_mult_126_n581
*616 filter_mult_126_n580
*617 filter_mult_126_n579
*618 filter_mult_126_n578
*619 filter_mult_126_n577
*620 filter_mult_126_n576
*621 filter_mult_126_n575
*622 filter_mult_126_n574
*623 filter_mult_126_n573
*624 filter_mult_126_n572
*625 filter_mult_126_n571
*626 filter_mult_126_n570
*627 filter_mult_126_n569
*628 filter_mult_126_n568
*629 filter_mult_126_n567
*630 filter_mult_126_n566
*631 filter_mult_126_n565
*632 filter_mult_126_n564
*633 filter_mult_126_n563
*634 filter_mult_126_n562
*635 filter_mult_126_n561
*636 filter_mult_126_n560
*637 filter_mult_126_n559
*638 filter_mult_126_n558
*639 filter_mult_126_n557
*640 filter_mult_126_n556
*641 filter_mult_126_n555
*642 filter_mult_126_n554
*643 filter_mult_126_n553
*644 filter_mult_126_n552
*645 filter_mult_126_n551
*646 filter_mult_126_n550
*647 filter_mult_126_n549
*648 filter_mult_126_n548
*649 filter_mult_126_n547
*650 filter_mult_126_n546
*651 filter_mult_126_n545
*652 filter_mult_126_n544
*653 filter_mult_126_n543
*654 filter_mult_126_n542
*655 filter_mult_126_n541
*656 filter_mult_126_n540
*657 filter_mult_126_n539
*658 filter_mult_126_n538
*659 filter_mult_126_n537
*660 filter_mult_126_n536
*661 filter_mult_126_n535
*662 filter_mult_126_n534
*663 filter_mult_126_n533
*664 filter_mult_126_n532
*665 filter_mult_126_n531
*666 filter_mult_126_n530
*667 filter_mult_126_n529
*668 filter_mult_126_n528
*669 filter_mult_126_n527
*670 filter_mult_126_n526
*671 filter_mult_126_n525
*672 filter_mult_126_n524
*673 filter_mult_126_n523
*674 filter_mult_126_n522
*675 filter_mult_126_n521
*676 filter_mult_126_n520
*677 filter_mult_126_n519
*678 filter_mult_126_n518
*679 filter_mult_126_n517
*680 filter_mult_126_n516
*681 filter_mult_126_n515
*682 filter_mult_126_n514
*683 filter_mult_126_n513
*684 filter_mult_126_n512
*685 filter_mult_126_n511
*686 filter_mult_126_n510
*687 filter_mult_126_n509
*688 filter_mult_126_n508
*689 filter_mult_126_n507
*690 filter_mult_126_n505
*691 filter_mult_126_n504
*692 filter_mult_126_n502
*693 filter_mult_126_n501
*694 filter_mult_126_n500
*695 filter_mult_126_n499
*696 filter_mult_126_n498
*697 filter_mult_126_n496
*698 filter_mult_126_n495
*699 filter_mult_126_n494
*700 filter_mult_126_n493
*701 filter_mult_126_n491
*702 filter_mult_126_n490
*703 filter_mult_126_n489
*704 filter_mult_126_n488
*705 filter_mult_126_n486
*706 filter_mult_126_n485
*707 filter_mult_126_n484
*708 filter_mult_126_n483
*709 filter_mult_126_n481
*710 filter_mult_126_n480
*711 filter_mult_126_n275
*712 filter_mult_126_n274
*713 filter_mult_126_n273
*714 filter_mult_126_n272
*715 filter_mult_126_n271
*716 filter_mult_126_n270
*717 filter_mult_126_n269
*718 filter_mult_126_n268
*719 filter_mult_126_n267
*720 filter_mult_126_n266
*721 filter_mult_126_n263
*722 filter_mult_126_n262
*723 filter_mult_126_n261
*724 filter_mult_126_n260
*725 filter_mult_126_n259
*726 filter_mult_126_n258
*727 filter_mult_126_n257
*728 filter_mult_126_n256
*729 filter_mult_126_n255
*730 filter_mult_126_n254
*731 filter_mult_126_n253
*732 filter_mult_126_n251
*733 filter_mult_126_n250
*734 filter_mult_126_n249
*735 filter_mult_126_n248
*736 filter_mult_126_n247
*737 filter_mult_126_n246
*738 filter_mult_126_n245
*739 filter_mult_126_n244
*740 filter_mult_126_n243
*741 filter_mult_126_n242
*742 filter_mult_126_n241
*743 filter_mult_126_n240
*744 filter_mult_126_n238
*745 filter_mult_126_n237
*746 filter_mult_126_n236
*747 filter_mult_126_n235
*748 filter_mult_126_n234
*749 filter_mult_126_n233
*750 filter_mult_126_n232
*751 filter_mult_126_n231
*752 filter_mult_126_n230
*753 filter_mult_126_n229
*754 filter_mult_126_n228
*755 filter_mult_126_n227
*756 filter_mult_126_n225
*757 filter_mult_126_n224
*758 filter_mult_126_n223
*759 filter_mult_126_n222
*760 filter_mult_126_n221
*761 filter_mult_126_n220
*762 filter_mult_126_n219
*763 filter_mult_126_n218
*764 filter_mult_126_n217
*765 filter_mult_126_n216
*766 filter_mult_126_n215
*767 filter_mult_126_n214
*768 filter_mult_126_n212
*769 filter_mult_126_n211
*770 filter_mult_126_n210
*771 filter_mult_126_n208
*772 filter_mult_126_n207
*773 filter_mult_126_n206
*774 filter_mult_126_n205
*775 filter_mult_126_n204
*776 filter_mult_126_n203
*777 filter_mult_126_n202
*778 filter_mult_126_n201
*779 filter_mult_126_n199
*780 filter_mult_126_n197
*781 filter_mult_126_n196
*782 filter_mult_126_n195
*783 filter_mult_126_n194
*784 filter_mult_126_n193
*785 filter_mult_126_n192
*786 filter_mult_126_n191
*787 filter_mult_126_n190
*788 filter_mult_126_n186
*789 filter_mult_126_n185
*790 filter_mult_126_n184
*791 filter_mult_126_n183
*792 filter_mult_126_n182
*793 filter_mult_126_n163
*794 filter_mult_126_n162
*795 filter_mult_126_n161
*796 filter_mult_126_n160
*797 filter_mult_126_n159
*798 filter_mult_126_n158
*799 filter_mult_126_n157
*800 filter_mult_126_n156
*801 filter_mult_126_n155
*802 filter_mult_126_n154
*803 filter_mult_126_n153
*804 filter_mult_126_n152
*805 filter_mult_126_n151
*806 filter_mult_126_n150
*807 filter_mult_126_n149
*808 filter_mult_126_n148
*809 filter_mult_126_n147
*810 filter_mult_126_n146
*811 filter_mult_126_n145
*812 filter_mult_126_n144
*813 filter_mult_126_n143
*814 filter_mult_126_n142
*815 filter_mult_126_n141
*816 filter_mult_126_n140
*817 filter_mult_126_n139
*818 filter_mult_126_n138
*819 filter_mult_126_n137
*820 filter_mult_126_n136
*821 filter_mult_126_n135
*822 filter_mult_126_n134
*823 filter_mult_126_n133
*824 filter_mult_126_n132
*825 filter_mult_126_n131
*826 filter_mult_126_n130
*827 filter_mult_126_n129
*828 filter_mult_126_n128
*829 filter_mult_126_n127
*830 filter_mult_126_n126
*831 filter_mult_126_n125
*832 filter_mult_126_n124
*833 filter_mult_126_n123
*834 filter_mult_126_n122
*835 filter_mult_126_n121
*836 filter_mult_126_n120
*837 filter_mult_126_n119
*838 filter_mult_126_n118
*839 filter_mult_126_n117
*840 filter_mult_126_n116
*841 filter_mult_126_n115
*842 filter_mult_126_n114
*843 filter_mult_126_n113
*844 filter_mult_126_n112
*845 filter_mult_126_n111
*846 filter_mult_126_n110
*847 filter_mult_126_n109
*848 filter_mult_126_n108
*849 filter_mult_126_n107
*850 filter_mult_126_n106
*851 filter_mult_126_n105
*852 filter_mult_126_n104
*853 filter_mult_126_n103
*854 filter_mult_126_n102
*855 filter_mult_126_n101
*856 filter_mult_126_n100
*857 filter_mult_126_n99
*858 filter_mult_126_n98
*859 filter_mult_126_n97
*860 filter_mult_126_n96
*861 filter_mult_126_n95
*862 filter_mult_126_n94
*863 filter_mult_126_n93
*864 filter_mult_126_n92
*865 filter_mult_126_n90
*866 filter_mult_126_n89
*867 filter_mult_126_n88
*868 filter_mult_126_n87
*869 filter_mult_126_n86
*870 filter_mult_126_n85
*871 filter_mult_126_n84
*872 filter_mult_126_n83
*873 filter_mult_126_n82
*874 filter_mult_126_n81
*875 filter_mult_126_n80
*876 filter_mult_126_n79
*877 filter_mult_126_n78
*878 filter_mult_126_n77
*879 filter_mult_126_n76
*880 filter_mult_126_n75
*881 filter_mult_126_n74
*882 filter_mult_126_n73
*883 filter_mult_126_n72
*884 filter_mult_126_n71
*885 filter_mult_126_n70
*886 filter_mult_126_n68
*887 filter_mult_126_n67
*888 filter_mult_126_n66
*889 filter_mult_126_n65
*890 filter_mult_126_n64
*891 filter_mult_126_n63
*892 filter_mult_126_n62
*893 filter_mult_126_n61
*894 filter_mult_126_n60
*895 filter_mult_126_n59
*896 filter_mult_126_n58
*897 filter_mult_126_n57
*898 filter_mult_126_n56
*899 filter_mult_126_n55
*900 filter_mult_126_n54
*901 filter_mult_126_n53
*902 filter_mult_126_n52
*903 filter_mult_126_n50
*904 filter_mult_126_n49
*905 filter_mult_126_n48
*906 filter_mult_126_n47
*907 filter_mult_126_n46
*908 filter_mult_126_n45
*909 filter_mult_126_n44
*910 filter_mult_126_n43
*911 filter_mult_126_n42
*912 filter_mult_126_n41
*913 filter_mult_126_n40
*914 filter_mult_126_n39
*915 filter_mult_126_n38
*916 filter_mult_126_n36
*917 filter_mult_126_n35
*918 filter_mult_126_n34
*919 filter_mult_126_n33
*920 filter_mult_126_n32
*921 filter_mult_126_n31
*922 filter_mult_126_n30
*923 filter_mult_126_n29
*924 filter_mult_126_n28
*925 filter_mult_126_n14
*926 filter_mult_126_n13
*927 filter_mult_126_n12
*928 filter_mult_126_n11
*929 filter_mult_126_n10
*930 filter_mult_126_n9
*931 filter_mult_126_n8
*932 filter_mult_126_n7
*933 filter_mult_126_n6
*934 filter_mult_126_n5
*935 filter_mult_126_n4
*936 filter_mult_135_n641
*937 filter_mult_135_n640
*938 filter_mult_135_n639
*939 filter_mult_135_n638
*940 filter_mult_135_n637
*941 filter_mult_135_n636
*942 filter_mult_135_n635
*943 filter_mult_135_n634
*944 filter_mult_135_n633
*945 filter_mult_135_n632
*946 filter_mult_135_n630
*947 filter_mult_135_n629
*948 filter_mult_135_n628
*949 filter_mult_135_n627
*950 filter_mult_135_n626
*951 filter_mult_135_n625
*952 filter_mult_135_n624
*953 filter_mult_135_n623
*954 filter_mult_135_n621
*955 filter_mult_135_n619
*956 filter_mult_135_n617
*957 filter_mult_135_n615
*958 filter_mult_135_n614
*959 filter_mult_135_n613
*960 filter_mult_135_n612
*961 filter_mult_135_n611
*962 filter_mult_135_n610
*963 filter_mult_135_n609
*964 filter_mult_135_n608
*965 filter_mult_135_n607
*966 filter_mult_135_n606
*967 filter_mult_135_n605
*968 filter_mult_135_n604
*969 filter_mult_135_n603
*970 filter_mult_135_n602
*971 filter_mult_135_n601
*972 filter_mult_135_n600
*973 filter_mult_135_n599
*974 filter_mult_135_n598
*975 filter_mult_135_n597
*976 filter_mult_135_n596
*977 filter_mult_135_n595
*978 filter_mult_135_n594
*979 filter_mult_135_n593
*980 filter_mult_135_n592
*981 filter_mult_135_n591
*982 filter_mult_135_n590
*983 filter_mult_135_n589
*984 filter_mult_135_n588
*985 filter_mult_135_n587
*986 filter_mult_135_n586
*987 filter_mult_135_n585
*988 filter_mult_135_n584
*989 filter_mult_135_n583
*990 filter_mult_135_n582
*991 filter_mult_135_n581
*992 filter_mult_135_n580
*993 filter_mult_135_n579
*994 filter_mult_135_n578
*995 filter_mult_135_n577
*996 filter_mult_135_n576
*997 filter_mult_135_n575
*998 filter_mult_135_n574
*999 filter_mult_135_n573
*1000 filter_mult_135_n572
*1001 filter_mult_135_n571
*1002 filter_mult_135_n570
*1003 filter_mult_135_n569
*1004 filter_mult_135_n568
*1005 filter_mult_135_n567
*1006 filter_mult_135_n566
*1007 filter_mult_135_n565
*1008 filter_mult_135_n564
*1009 filter_mult_135_n563
*1010 filter_mult_135_n562
*1011 filter_mult_135_n561
*1012 filter_mult_135_n560
*1013 filter_mult_135_n559
*1014 filter_mult_135_n558
*1015 filter_mult_135_n557
*1016 filter_mult_135_n556
*1017 filter_mult_135_n555
*1018 filter_mult_135_n554
*1019 filter_mult_135_n553
*1020 filter_mult_135_n552
*1021 filter_mult_135_n551
*1022 filter_mult_135_n550
*1023 filter_mult_135_n549
*1024 filter_mult_135_n548
*1025 filter_mult_135_n547
*1026 filter_mult_135_n546
*1027 filter_mult_135_n545
*1028 filter_mult_135_n544
*1029 filter_mult_135_n543
*1030 filter_mult_135_n542
*1031 filter_mult_135_n541
*1032 filter_mult_135_n540
*1033 filter_mult_135_n539
*1034 filter_mult_135_n538
*1035 filter_mult_135_n537
*1036 filter_mult_135_n536
*1037 filter_mult_135_n535
*1038 filter_mult_135_n534
*1039 filter_mult_135_n533
*1040 filter_mult_135_n532
*1041 filter_mult_135_n531
*1042 filter_mult_135_n530
*1043 filter_mult_135_n529
*1044 filter_mult_135_n528
*1045 filter_mult_135_n527
*1046 filter_mult_135_n526
*1047 filter_mult_135_n525
*1048 filter_mult_135_n524
*1049 filter_mult_135_n523
*1050 filter_mult_135_n522
*1051 filter_mult_135_n521
*1052 filter_mult_135_n520
*1053 filter_mult_135_n519
*1054 filter_mult_135_n518
*1055 filter_mult_135_n517
*1056 filter_mult_135_n516
*1057 filter_mult_135_n515
*1058 filter_mult_135_n514
*1059 filter_mult_135_n513
*1060 filter_mult_135_n512
*1061 filter_mult_135_n511
*1062 filter_mult_135_n510
*1063 filter_mult_135_n509
*1064 filter_mult_135_n508
*1065 filter_mult_135_n507
*1066 filter_mult_135_n505
*1067 filter_mult_135_n504
*1068 filter_mult_135_n502
*1069 filter_mult_135_n501
*1070 filter_mult_135_n500
*1071 filter_mult_135_n499
*1072 filter_mult_135_n498
*1073 filter_mult_135_n496
*1074 filter_mult_135_n495
*1075 filter_mult_135_n494
*1076 filter_mult_135_n493
*1077 filter_mult_135_n491
*1078 filter_mult_135_n490
*1079 filter_mult_135_n489
*1080 filter_mult_135_n488
*1081 filter_mult_135_n486
*1082 filter_mult_135_n485
*1083 filter_mult_135_n484
*1084 filter_mult_135_n483
*1085 filter_mult_135_n481
*1086 filter_mult_135_n480
*1087 filter_mult_135_n275
*1088 filter_mult_135_n274
*1089 filter_mult_135_n273
*1090 filter_mult_135_n272
*1091 filter_mult_135_n271
*1092 filter_mult_135_n270
*1093 filter_mult_135_n269
*1094 filter_mult_135_n268
*1095 filter_mult_135_n267
*1096 filter_mult_135_n266
*1097 filter_mult_135_n263
*1098 filter_mult_135_n262
*1099 filter_mult_135_n261
*1100 filter_mult_135_n260
*1101 filter_mult_135_n259
*1102 filter_mult_135_n258
*1103 filter_mult_135_n257
*1104 filter_mult_135_n256
*1105 filter_mult_135_n255
*1106 filter_mult_135_n254
*1107 filter_mult_135_n253
*1108 filter_mult_135_n251
*1109 filter_mult_135_n250
*1110 filter_mult_135_n249
*1111 filter_mult_135_n248
*1112 filter_mult_135_n247
*1113 filter_mult_135_n246
*1114 filter_mult_135_n245
*1115 filter_mult_135_n244
*1116 filter_mult_135_n243
*1117 filter_mult_135_n242
*1118 filter_mult_135_n241
*1119 filter_mult_135_n240
*1120 filter_mult_135_n238
*1121 filter_mult_135_n237
*1122 filter_mult_135_n236
*1123 filter_mult_135_n235
*1124 filter_mult_135_n234
*1125 filter_mult_135_n233
*1126 filter_mult_135_n232
*1127 filter_mult_135_n231
*1128 filter_mult_135_n230
*1129 filter_mult_135_n229
*1130 filter_mult_135_n228
*1131 filter_mult_135_n227
*1132 filter_mult_135_n225
*1133 filter_mult_135_n224
*1134 filter_mult_135_n223
*1135 filter_mult_135_n222
*1136 filter_mult_135_n221
*1137 filter_mult_135_n220
*1138 filter_mult_135_n219
*1139 filter_mult_135_n218
*1140 filter_mult_135_n217
*1141 filter_mult_135_n216
*1142 filter_mult_135_n215
*1143 filter_mult_135_n214
*1144 filter_mult_135_n212
*1145 filter_mult_135_n211
*1146 filter_mult_135_n210
*1147 filter_mult_135_n208
*1148 filter_mult_135_n207
*1149 filter_mult_135_n206
*1150 filter_mult_135_n205
*1151 filter_mult_135_n204
*1152 filter_mult_135_n203
*1153 filter_mult_135_n202
*1154 filter_mult_135_n201
*1155 filter_mult_135_n199
*1156 filter_mult_135_n197
*1157 filter_mult_135_n196
*1158 filter_mult_135_n195
*1159 filter_mult_135_n194
*1160 filter_mult_135_n193
*1161 filter_mult_135_n192
*1162 filter_mult_135_n191
*1163 filter_mult_135_n190
*1164 filter_mult_135_n186
*1165 filter_mult_135_n185
*1166 filter_mult_135_n184