*SPEF "IEEE 1481-1998"
*DESIGN "IIR_filter"
*DATE "Thu Nov  7 20:09:26 2019"
*VENDOR "Cadence Design Systems, Inc."
*PROGRAM "Innovus"
*VERSION "17.11-s080_1"
*DESIGN_FLOW "COUPLING C" "PIN_CAP NONE" "NAME_SCOPE LOCAL"
*DIVIDER /
*DELIMITER :
*BUS_DELIMITER []
*T_UNIT 1 NS
*C_UNIT 1 PF
*R_UNIT 1 OHM
*L_UNIT 1 HENRY

// MMMC spef file for corner 'my_rc'

*NAME_MAP

*1 DIN[11]
*2 DIN[10]
*3 DIN[9]
*4 DIN[8]
*5 DIN[7]
*6 DIN[6]
*7 DIN[5]
*8 DIN[4]
*9 DIN[3]
*10 DIN[2]
*11 DIN[1]
*12 DIN[0]
*13 CLK
*14 RST_n
*15 VIN
*16 DOUT[11]
*17 DOUT[10]
*18 DOUT[9]
*19 DOUT[8]
*20 DOUT[7]
*21 DOUT[6]
*22 DOUT[5]
*23 DOUT[4]
*24 DOUT[3]
*25 DOUT[2]
*26 DOUT[1]
*27 DOUT[0]
*28 VOUT
*29 FE_OFN11_filter_v2_1
*30 FE_OFN10_filter_v1_1
*31 FE_OFN9_filter_v2_3
*32 FE_OFN8_filter_v2_11
*33 FE_OFN7_filter_v2_9
*34 FE_OFN6_filter_v2_7
*35 FE_OFN5_filter_v2_5
*36 FE_OFN4_filter_v1_11
*37 FE_OFN3_filter_v1_3
*38 FE_OFN2_filter_v1_5
*39 FE_OFN1_filter_v1_7
*40 FE_OFN0_filter_v1_9
*41 FE_DBTN14_RST_n
*42 FE_DBTN13_filter_v1_0
*43 FE_DBTN12_filter_v1_11
*44 FE_DBTN11_filter_v1_9
*45 FE_DBTN10_filter_v1_7
*46 FE_DBTN9_filter_v1_5
*47 FE_DBTN8_filter_v1_3
*48 FE_DBTN7_filter_v1_1
*49 FE_DBTN6_filter_v2_0
*50 FE_DBTN5_filter_v2_11
*51 FE_DBTN4_filter_v2_9
*52 FE_DBTN3_filter_v2_7
*53 FE_DBTN2_filter_v2_5
*54 FE_DBTN1_filter_v2_3
*55 FE_DBTN0_filter_v2_1
*56 filter_v1a0_f_12_
*57 filter_v1a0_f_13_
*58 filter_v1a0_f_14_
*59 filter_v1a0_f_15_
*60 filter_v1a0_f_16_
*61 filter_v1a0_f_17_
*62 filter_v1a0_f_18_
*63 filter_v1a0_f_19_
*64 filter_v1a0_f_20_
*65 filter_v1a0_f_21_
*66 filter_v1a0_f_22_
*67 filter_v1a0_f_23_
*68 filter_v2a1_f_12_
*69 filter_v2a1_f_13_
*70 filter_v2a1_f_14_
*71 filter_v2a1_f_15_
*72 filter_v2a1_f_16_
*73 filter_v2a1_f_17_
*74 filter_v2a1_f_18_
*75 filter_v2a1_f_19_
*76 filter_v2a1_f_20_
*77 filter_v2a1_f_21_
*78 filter_v2a1_f_22_
*79 filter_v2a1_f_23_
*80 filter_v1b1_f_12_
*81 filter_v1b1_f_13_
*82 filter_v1b1_f_14_
*83 filter_v1b1_f_15_
*84 filter_v1b1_f_16_
*85 filter_v1b1_f_17_
*86 filter_v1b1_f_18_
*87 filter_v1b1_f_19_
*88 filter_v1b1_f_20_
*89 filter_v1b1_f_21_
*90 filter_v1b1_f_22_
*91 filter_v1b1_f_23_
*92 filter_v1b1_piu_v2b2_0_
*93 filter_v1b1_piu_v2b2_10_
*94 filter_v1b1_piu_v2b2_11_
*95 filter_v1b1_piu_v2b2_1_
*96 filter_v1b1_piu_v2b2_2_
*97 filter_v1b1_piu_v2b2_3_
*98 filter_v1b1_piu_v2b2_4_
*99 filter_v1b1_piu_v2b2_5_
*100 filter_v1b1_piu_v2b2_6_
*101 filter_v1b1_piu_v2b2_7_
*102 filter_v1b1_piu_v2b2_8_
*103 filter_v1b1_piu_v2b2_9_
*104 filter_v2b2_f_12_
*105 filter_v2b2_f_13_
*106 filter_v2b2_f_14_
*107 filter_v2b2_f_15_
*108 filter_v2b2_f_16_
*109 filter_v2b2_f_17_
*110 filter_v2b2_f_18_
*111 filter_v2b2_f_19_
*112 filter_v2b2_f_20_
*113 filter_v2b2_f_21_
*114 filter_v2b2_f_22_
*115 filter_v2b2_f_23_
*116 filter_vb0_f_12_
*117 filter_vb0_f_13_
*118 filter_vb0_f_14_
*119 filter_vb0_f_15_
*120 filter_vb0_f_16_
*121 filter_vb0_f_17_
*122 filter_vb0_f_18_
*123 filter_vb0_f_19_
*124 filter_vb0_f_20_
*125 filter_vb0_f_21_
*126 filter_vb0_f_22_
*127 filter_vb0_f_23_
*128 filter_Reg_ctrl_1_out
*129 filter_Reg_in_n12
*130 filter_Reg_in_n11
*131 filter_Reg_in_n10
*132 filter_Reg_in_n9
*133 filter_Reg_in_n8
*134 filter_Reg_in_n7
*135 filter_Reg_in_n6
*136 filter_Reg_in_n5
*137 filter_Reg_in_n4
*138 filter_Reg_in_n3
*139 filter_Reg_in_n2
*140 filter_Reg_in_n1
*141 filter_Reg_in_n27
*142 filter_Reg_in_n26
*143 filter_Reg_in_n25
*144 filter_Reg_in_n24
*145 filter_Reg_in_n23
*146 filter_Reg_in_n22
*147 filter_Reg_in_n21
*148 filter_Reg_in_n20
*149 filter_Reg_in_n19
*150 filter_Reg_in_n18
*151 filter_Reg_in_n17
*152 filter_Reg_in_n16
*153 filter_Reg_in_n15
*154 filter_Reg_in_n14
*155 filter_Reg_delay_1_n41
*156 filter_Reg_delay_1_n40
*157 filter_Reg_delay_1_n39
*158 filter_Reg_delay_1_n38
*159 filter_Reg_delay_1_n37
*160 filter_Reg_delay_1_n36
*161 filter_Reg_delay_1_n35
*162 filter_Reg_delay_1_n34
*163 filter_Reg_delay_1_n33
*164 filter_Reg_delay_1_n32
*165 filter_Reg_delay_1_n31
*166 filter_Reg_delay_1_n30
*167 filter_Reg_delay_1_n29
*168 filter_Reg_delay_1_n28
*169 filter_Reg_delay_1_n12
*170 filter_Reg_delay_1_n11
*171 filter_Reg_delay_1_n10
*172 filter_Reg_delay_1_n9
*173 filter_Reg_delay_1_n8
*174 filter_Reg_delay_1_n7
*175 filter_Reg_delay_1_n6
*176 filter_Reg_delay_1_n5
*177 filter_Reg_delay_1_n4
*178 filter_Reg_delay_1_n3
*179 filter_Reg_delay_1_n2
*180 filter_Reg_delay_1_n1
*181 filter_Reg_delay_2_n41
*182 filter_Reg_delay_2_n40
*183 filter_Reg_delay_2_n39
*184 filter_Reg_delay_2_n38
*185 filter_Reg_delay_2_n37
*186 filter_Reg_delay_2_n36
*187 filter_Reg_delay_2_n35
*188 filter_Reg_delay_2_n34
*189 filter_Reg_delay_2_n33
*190 filter_Reg_delay_2_n32
*191 filter_Reg_delay_2_n31
*192 filter_Reg_delay_2_n30
*193 filter_Reg_delay_2_n29
*194 filter_Reg_delay_2_n28
*195 filter_Reg_delay_2_n12
*196 filter_Reg_delay_2_n11
*197 filter_Reg_delay_2_n10
*198 filter_Reg_delay_2_n9
*199 filter_Reg_delay_2_n8
*200 filter_Reg_delay_2_n7
*201 filter_Reg_delay_2_n6
*202 filter_Reg_delay_2_n5
*203 filter_Reg_delay_2_n4
*204 filter_Reg_delay_2_n3
*205 filter_Reg_delay_2_n2
*206 filter_Reg_delay_2_n1
*207 filter_Reg_out_n41
*208 filter_Reg_out_n40
*209 filter_Reg_out_n39
*210 filter_Reg_out_n38
*211 filter_Reg_out_n37
*212 filter_Reg_out_n36
*213 filter_Reg_out_n35
*214 filter_Reg_out_n34
*215 filter_Reg_out_n33
*216 filter_Reg_out_n32
*217 filter_Reg_out_n31
*218 filter_Reg_out_n30
*219 filter_Reg_out_n29
*220 filter_Reg_out_n28
*221 filter_Reg_out_n12
*222 filter_Reg_out_n11
*223 filter_Reg_out_n10
*224 filter_Reg_out_n9
*225 filter_Reg_out_n8
*226 filter_Reg_out_n7
*227 filter_Reg_out_n6
*228 filter_Reg_out_n5
*229 filter_Reg_out_n4
*230 filter_Reg_out_n3
*231 filter_Reg_out_n2
*232 filter_Reg_out_n1
*233 filter_Reg_ctrl_1_n4
*234 filter_Reg_ctrl_1_n3
*235 filter_Reg_ctrl_2_n6
*236 filter_Reg_ctrl_2_n5
*237 filter_mult_113_n545
*238 filter_mult_113_n543
*239 filter_mult_113_n542
*240 filter_mult_113_n541
*241 filter_mult_113_n540
*242 filter_mult_113_n539
*243 filter_mult_113_n538
*244 filter_mult_113_n537
*245 filter_mult_113_n536
*246 filter_mult_113_n535
*247 filter_mult_113_n534
*248 filter_mult_113_n533
*249 filter_mult_113_n532
*250 filter_mult_113_n531
*251 filter_mult_113_n530
*252 filter_mult_113_n528
*253 filter_mult_113_n526
*254 filter_mult_113_n524
*255 filter_mult_113_n522
*256 filter_mult_113_n521
*257 filter_mult_113_n520
*258 filter_mult_113_n519
*259 filter_mult_113_n518
*260 filter_mult_113_n517
*261 filter_mult_113_n516
*262 filter_mult_113_n515
*263 filter_mult_113_n514
*264 filter_mult_113_n513
*265 filter_mult_113_n512
*266 filter_mult_113_n511
*267 filter_mult_113_n510
*268 filter_mult_113_n509
*269 filter_mult_113_n508
*270 filter_mult_113_n507
*271 filter_mult_113_n506
*272 filter_mult_113_n505
*273 filter_mult_113_n504
*274 filter_mult_113_n503
*275 filter_mult_113_n502
*276 filter_mult_113_n501
*277 filter_mult_113_n500
*278 filter_mult_113_n499
*279 filter_mult_113_n498
*280 filter_mult_113_n497
*281 filter_mult_113_n496
*282 filter_mult_113_n495
*283 filter_mult_113_n494
*284 filter_mult_113_n493
*285 filter_mult_113_n492
*286 filter_mult_113_n491
*287 filter_mult_113_n490
*288 filter_mult_113_n489
*289 filter_mult_113_n488
*290 filter_mult_113_n487
*291 filter_mult_113_n486
*292 filter_mult_113_n485
*293 filter_mult_113_n484
*294 filter_mult_113_n483
*295 filter_mult_113_n482
*296 filter_mult_113_n481
*297 filter_mult_113_n480
*298 filter_mult_113_n479
*299 filter_mult_113_n478
*300 filter_mult_113_n477
*301 filter_mult_113_n476
*302 filter_mult_113_n475
*303 filter_mult_113_n474
*304 filter_mult_113_n473
*305 filter_mult_113_n472
*306 filter_mult_113_n471
*307 filter_mult_113_n470
*308 filter_mult_113_n469
*309 filter_mult_113_n468
*310 filter_mult_113_n467
*311 filter_mult_113_n466
*312 filter_mult_113_n465
*313 filter_mult_113_n464
*314 filter_mult_113_n463
*315 filter_mult_113_n462
*316 filter_mult_113_n461
*317 filter_mult_113_n460
*318 filter_mult_113_n459
*319 filter_mult_113_n458
*320 filter_mult_113_n457
*321 filter_mult_113_n456
*322 filter_mult_113_n455
*323 filter_mult_113_n454
*324 filter_mult_113_n453
*325 filter_mult_113_n452
*326 filter_mult_113_n451
*327 filter_mult_113_n450
*328 filter_mult_113_n449
*329 filter_mult_113_n448
*330 filter_mult_113_n446
*331 filter_mult_113_n445
*332 filter_mult_113_n444
*333 filter_mult_113_n443
*334 filter_mult_113_n442
*335 filter_mult_113_n441
*336 filter_mult_113_n440
*337 filter_mult_113_n439
*338 filter_mult_113_n438
*339 filter_mult_113_n437
*340 filter_mult_113_n436
*341 filter_mult_113_n435
*342 filter_mult_113_n434
*343 filter_mult_113_n433
*344 filter_mult_113_n432
*345 filter_mult_113_n431
*346 filter_mult_113_n429
*347 filter_mult_113_n428
*348 filter_mult_113_n427
*349 filter_mult_113_n426
*350 filter_mult_113_n425
*351 filter_mult_113_n424
*352 filter_mult_113_n423
*353 filter_mult_113_n422
*354 filter_mult_113_n421
*355 filter_mult_113_n420
*356 filter_mult_113_n419
*357 filter_mult_113_n418
*358 filter_mult_113_n417
*359 filter_mult_113_n416
*360 filter_mult_113_n415
*361 filter_mult_113_n414
*362 filter_mult_113_n413
*363 filter_mult_113_n412
*364 filter_mult_113_n411
*365 filter_mult_113_n410
*366 filter_mult_113_n409
*367 filter_mult_113_n408
*368 filter_mult_113_n407
*369 filter_mult_113_n406
*370 filter_mult_113_n405
*371 filter_mult_113_n403
*372 filter_mult_113_n402
*373 filter_mult_113_n401
*374 filter_mult_113_n227
*375 filter_mult_113_n226
*376 filter_mult_113_n225
*377 filter_mult_113_n224
*378 filter_mult_113_n223
*379 filter_mult_113_n222
*380 filter_mult_113_n221
*381 filter_mult_113_n220
*382 filter_mult_113_n219
*383 filter_mult_113_n216
*384 filter_mult_113_n215
*385 filter_mult_113_n214
*386 filter_mult_113_n213
*387 filter_mult_113_n212
*388 filter_mult_113_n211
*389 filter_mult_113_n210
*390 filter_mult_113_n209
*391 filter_mult_113_n208
*392 filter_mult_113_n207
*393 filter_mult_113_n205
*394 filter_mult_113_n204
*395 filter_mult_113_n203
*396 filter_mult_113_n202
*397 filter_mult_113_n201
*398 filter_mult_113_n200
*399 filter_mult_113_n199
*400 filter_mult_113_n198
*401 filter_mult_113_n196
*402 filter_mult_113_n195
*403 filter_mult_113_n193
*404 filter_mult_113_n192
*405 filter_mult_113_n191
*406 filter_mult_113_n190
*407 filter_mult_113_n189
*408 filter_mult_113_n188
*409 filter_mult_113_n187
*410 filter_mult_113_n186
*411 filter_mult_113_n185
*412 filter_mult_113_n184
*413 filter_mult_113_n183
*414 filter_mult_113_n181
*415 filter_mult_113_n180
*416 filter_mult_113_n179
*417 filter_mult_113_n178
*418 filter_mult_113_n176
*419 filter_mult_113_n175
*420 filter_mult_113_n174
*421 filter_mult_113_n173
*422 filter_mult_113_n172
*423 filter_mult_113_n171
*424 filter_mult_113_n169
*425 filter_mult_113_n168
*426 filter_mult_113_n167
*427 filter_mult_113_n166
*428 filter_mult_113_n165
*429 filter_mult_113_n164
*430 filter_mult_113_n163
*431 filter_mult_113_n162
*432 filter_mult_113_n161
*433 filter_mult_113_n160
*434 filter_mult_113_n159
*435 filter_mult_113_n155
*436 filter_mult_113_n154
*437 filter_mult_113_n153
*438 filter_mult_113_n152
*439 filter_mult_113_n134
*440 filter_mult_113_n133
*441 filter_mult_113_n132
*442 filter_mult_113_n131
*443 filter_mult_113_n130
*444 filter_mult_113_n129
*445 filter_mult_113_n128
*446 filter_mult_113_n127
*447 filter_mult_113_n126
*448 filter_mult_113_n125
*449 filter_mult_113_n124
*450 filter_mult_113_n123
*451 filter_mult_113_n122
*452 filter_mult_113_n121
*453 filter_mult_113_n120
*454 filter_mult_113_n119
*455 filter_mult_113_n118
*456 filter_mult_113_n117
*457 filter_mult_113_n116
*458 filter_mult_113_n115
*459 filter_mult_113_n114
*460 filter_mult_113_n113
*461 filter_mult_113_n112
*462 filter_mult_113_n111
*463 filter_mult_113_n110
*464 filter_mult_113_n109
*465 filter_mult_113_n108
*466 filter_mult_113_n107
*467 filter_mult_113_n106
*468 filter_mult_113_n105
*469 filter_mult_113_n104
*470 filter_mult_113_n103
*471 filter_mult_113_n102
*472 filter_mult_113_n101
*473 filter_mult_113_n100
*474 filter_mult_113_n99
*475 filter_mult_113_n98
*476 filter_mult_113_n97
*477 filter_mult_113_n96
*478 filter_mult_113_n95
*479 filter_mult_113_n94
*480 filter_mult_113_n93
*481 filter_mult_113_n92
*482 filter_mult_113_n91
*483 filter_mult_113_n90
*484 filter_mult_113_n89
*485 filter_mult_113_n88
*486 filter_mult_113_n87
*487 filter_mult_113_n86
*488 filter_mult_113_n85
*489 filter_mult_113_n84
*490 filter_mult_113_n83
*491 filter_mult_113_n82
*492 filter_mult_113_n81
*493 filter_mult_113_n80
*494 filter_mult_113_n79
*495 filter_mult_113_n78
*496 filter_mult_113_n77
*497 filter_mult_113_n76
*498 filter_mult_113_n75
*499 filter_mult_113_n73
*500 filter_mult_113_n72
*501 filter_mult_113_n71
*502 filter_mult_113_n70
*503 filter_mult_113_n69
*504 filter_mult_113_n68
*505 filter_mult_113_n67
*506 filter_mult_113_n66
*507 filter_mult_113_n65
*508 filter_mult_113_n64
*509 filter_mult_113_n63
*510 filter_mult_113_n62
*511 filter_mult_113_n61
*512 filter_mult_113_n60
*513 filter_mult_113_n59
*514 filter_mult_113_n58
*515 filter_mult_113_n57
*516 filter_mult_113_n55
*517 filter_mult_113_n54
*518 filter_mult_113_n53
*519 filter_mult_113_n52
*520 filter_mult_113_n51
*521 filter_mult_113_n50
*522 filter_mult_113_n49
*523 filter_mult_113_n48
*524 filter_mult_113_n47
*525 filter_mult_113_n46
*526 filter_mult_113_n45
*527 filter_mult_113_n44
*528 filter_mult_113_n43
*529 filter_mult_113_n41
*530 filter_mult_113_n40
*531 filter_mult_113_n39
*532 filter_mult_113_n38
*533 filter_mult_113_n37
*534 filter_mult_113_n36
*535 filter_mult_113_n35
*536 filter_mult_113_n34
*537 filter_mult_113_n33
*538 filter_mult_113_n31
*539 filter_mult_113_n30
*540 filter_mult_113_n29
*541 filter_mult_113_n28
*542 filter_mult_113_n27
*543 filter_mult_113_n25
*544 filter_mult_113_n13
*545 filter_mult_113_n12
*546 filter_mult_113_n11
*547 filter_mult_113_n10
*548 filter_mult_113_n9
*549 filter_mult_113_n8
*550 filter_mult_113_n7
*551 filter_mult_113_n6
*552 filter_mult_113_n5
*553 filter_mult_113_n4
*554 filter_mult_113_n3
*555 filter_mult_123_n545
*556 filter_mult_123_n543
*557 filter_mult_123_n542
*558 filter_mult_123_n541
*559 filter_mult_123_n540
*560 filter_mult_123_n539
*561 filter_mult_123_n538
*562 filter_mult_123_n537
*563 filter_mult_123_n536
*564 filter_mult_123_n535
*565 filter_mult_123_n534
*566 filter_mult_123_n533
*567 filter_mult_123_n532
*568 filter_mult_123_n531
*569 filter_mult_123_n530
*570 filter_mult_123_n529
*571 filter_mult_123_n528
*572 filter_mult_123_n527
*573 filter_mult_123_n526
*574 filter_mult_123_n525
*575 filter_mult_123_n524
*576 filter_mult_123_n523
*577 filter_mult_123_n522
*578 filter_mult_123_n521
*579 filter_mult_123_n520
*580 filter_mult_123_n519
*581 filter_mult_123_n518
*582 filter_mult_123_n517
*583 filter_mult_123_n516
*584 filter_mult_123_n515
*585 filter_mult_123_n514
*586 filter_mult_123_n513
*587 filter_mult_123_n512
*588 filter_mult_123_n511
*589 filter_mult_123_n510
*590 filter_mult_123_n509
*591 filter_mult_123_n508
*592 filter_mult_123_n507
*593 filter_mult_123_n506
*594 filter_mult_123_n505
*595 filter_mult_123_n504
*596 filter_mult_123_n503
*597 filter_mult_123_n502
*598 filter_mult_123_n501
*599 filter_mult_123_n500
*600 filter_mult_123_n499
*601 filter_mult_123_n498
*602 filter_mult_123_n497
*603 filter_mult_123_n496
*604 filter_mult_123_n495
*605 filter_mult_123_n494
*606 filter_mult_123_n493
*607 filter_mult_123_n492
*608 filter_mult_123_n491
*609 filter_mult_123_n490
*610 filter_mult_123_n489
*611 filter_mult_123_n488
*612 filter_mult_123_n487
*613 filter_mult_123_n486
*614 filter_mult_123_n485
*615 filter_mult_123_n484
*616 filter_mult_123_n483
*617 filter_mult_123_n482
*618 filter_mult_123_n481
*619 filter_mult_123_n480
*620 filter_mult_123_n479
*621 filter_mult_123_n478
*622 filter_mult_123_n477
*623 filter_mult_123_n476
*624 filter_mult_123_n475
*625 filter_mult_123_n474
*626 filter_mult_123_n473
*627 filter_mult_123_n472
*628 filter_mult_123_n471
*629 filter_mult_123_n469
*630 filter_mult_123_n468
*631 filter_mult_123_n467
*632 filter_mult_123_n466
*633 filter_mult_123_n465
*634 filter_mult_123_n464
*635 filter_mult_123_n463
*636 filter_mult_123_n462
*637 filter_mult_123_n461
*638 filter_mult_123_n460
*639 filter_mult_123_n459
*640 filter_mult_123_n458
*641 filter_mult_123_n457
*642 filter_mult_123_n456
*643 filter_mult_123_n455
*644 filter_mult_123_n454
*645 filter_mult_123_n453
*646 filter_mult_123_n452
*647 filter_mult_123_n451
*648 filter_mult_123_n450
*649 filter_mult_123_n449
*650 filter_mult_123_n448
*651 filter_mult_123_n446
*652 filter_mult_123_n445
*653 filter_mult_123_n444
*654 filter_mult_123_n443
*655 filter_mult_123_n442
*656 filter_mult_123_n441
*657 filter_mult_123_n440
*658 filter_mult_123_n439
*659 filter_mult_123_n438
*660 filter_mult_123_n437
*661 filter_mult_123_n436
*662 filter_mult_123_n435
*663 filter_mult_123_n434
*664 filter_mult_123_n432
*665 filter_mult_123_n431
*666 filter_mult_123_n430
*667 filter_mult_123_n429
*668 filter_mult_123_n428
*669 filter_mult_123_n427
*670 filter_mult_123_n426
*671 filter_mult_123_n425
*672 filter_mult_123_n424
*673 filter_mult_123_n423
*674 filter_mult_123_n422
*675 filter_mult_123_n421
*676 filter_mult_123_n420
*677 filter_mult_123_n419
*678 filter_mult_123_n418
*679 filter_mult_123_n417
*680 filter_mult_123_n416
*681 filter_mult_123_n415
*682 filter_mult_123_n414
*683 filter_mult_123_n413
*684 filter_mult_123_n412
*685 filter_mult_123_n411
*686 filter_mult_123_n403
*687 filter_mult_123_n402
*688 filter_mult_123_n401
*689 filter_mult_123_n227
*690 filter_mult_123_n226
*691 filter_mult_123_n225
*692 filter_mult_123_n224
*693 filter_mult_123_n223
*694 filter_mult_123_n222
*695 filter_mult_123_n221
*696 filter_mult_123_n220
*697 filter_mult_123_n219
*698 filter_mult_123_n216
*699 filter_mult_123_n215
*700 filter_mult_123_n214
*701 filter_mult_123_n213
*702 filter_mult_123_n212
*703 filter_mult_123_n211
*704 filter_mult_123_n210
*705 filter_mult_123_n209
*706 filter_mult_123_n208
*707 filter_mult_123_n207
*708 filter_mult_123_n205
*709 filter_mult_123_n204
*710 filter_mult_123_n203
*711 filter_mult_123_n202
*712 filter_mult_123_n201
*713 filter_mult_123_n200
*714 filter_mult_123_n199
*715 filter_mult_123_n198
*716 filter_mult_123_n196
*717 filter_mult_123_n195
*718 filter_mult_123_n193
*719 filter_mult_123_n192
*720 filter_mult_123_n191
*721 filter_mult_123_n190
*722 filter_mult_123_n189
*723 filter_mult_123_n188
*724 filter_mult_123_n187
*725 filter_mult_123_n186
*726 filter_mult_123_n185
*727 filter_mult_123_n184
*728 filter_mult_123_n183
*729 filter_mult_123_n181
*730 filter_mult_123_n180
*731 filter_mult_123_n179
*732 filter_mult_123_n178
*733 filter_mult_123_n176
*734 filter_mult_123_n175
*735 filter_mult_123_n174
*736 filter_mult_123_n173
*737 filter_mult_123_n172
*738 filter_mult_123_n171
*739 filter_mult_123_n169
*740 filter_mult_123_n168
*741 filter_mult_123_n167
*742 filter_mult_123_n166
*743 filter_mult_123_n165
*744 filter_mult_123_n164
*745 filter_mult_123_n163
*746 filter_mult_123_n162
*747 filter_mult_123_n161
*748 filter_mult_123_n160
*749 filter_mult_123_n159
*750 filter_mult_123_n155
*751 filter_mult_123_n154
*752 filter_mult_123_n153
*753 filter_mult_123_n152
*754 filter_mult_123_n134
*755 filter_mult_123_n133
*756 filter_mult_123_n132
*757 filter_mult_123_n131
*758 filter_mult_123_n130
*759 filter_mult_123_n129
*760 filter_mult_123_n128
*761 filter_mult_123_n127
*762 filter_mult_123_n126
*763 filter_mult_123_n125
*764 filter_mult_123_n124
*765 filter_mult_123_n123
*766 filter_mult_123_n122
*767 filter_mult_123_n121
*768 filter_mult_123_n120
*769 filter_mult_123_n119
*770 filter_mult_123_n118
*771 filter_mult_123_n117
*772 filter_mult_123_n116
*773 filter_mult_123_n115
*774 filter_mult_123_n114
*775 filter_mult_123_n113
*776 filter_mult_123_n112
*777 filter_mult_123_n111
*778 filter_mult_123_n110
*779 filter_mult_123_n109
*780 filter_mult_123_n108
*781 filter_mult_123_n107
*782 filter_mult_123_n106
*783 filter_mult_123_n105
*784 filter_mult_123_n104
*785 filter_mult_123_n103
*786 filter_mult_123_n102
*787 filter_mult_123_n101
*788 filter_mult_123_n100
*789 filter_mult_123_n99
*790 filter_mult_123_n98
*791 filter_mult_123_n97
*792 filter_mult_123_n96
*793 filter_mult_123_n95
*794 filter_mult_123_n94
*795 filter_mult_123_n93
*796 filter_mult_123_n92
*797 filter_mult_123_n91
*798 filter_mult_123_n90
*799 filter_mult_123_n89
*800 filter_mult_123_n88
*801 filter_mult_123_n87
*802 filter_mult_123_n86
*803 filter_mult_123_n85
*804 filter_mult_123_n84
*805 filter_mult_123_n83
*806 filter_mult_123_n82
*807 filter_mult_123_n81
*808 filter_mult_123_n80
*809 filter_mult_123_n79
*810 filter_mult_123_n78
*811 filter_mult_123_n77
*812 filter_mult_123_n76
*813 filter_mult_123_n75
*814 filter_mult_123_n73
*815 filter_mult_123_n72
*816 filter_mult_123_n71
*817 filter_mult_123_n70
*818 filter_mult_123_n69
*819 filter_mult_123_n68
*820 filter_mult_123_n67
*821 filter_mult_123_n66
*822 filter_mult_123_n65
*823 filter_mult_123_n64
*824 filter_mult_123_n63
*825 filter_mult_123_n62
*826 filter_mult_123_n61
*827 filter_mult_123_n60
*828 filter_mult_123_n59
*829 filter_mult_123_n58
*830 filter_mult_123_n57
*831 filter_mult_123_n55
*832 filter_mult_123_n54
*833 filter_mult_123_n53
*834 filter_mult_123_n52
*835 filter_mult_123_n51
*836 filter_mult_123_n50
*837 filter_mult_123_n49
*838 filter_mult_123_n48
*839 filter_mult_123_n47
*840 filter_mult_123_n46
*841 filter_mult_123_n45
*842 filter_mult_123_n44
*843 filter_mult_123_n43
*844 filter_mult_123_n41
*845 filter_mult_123_n40
*846 filter_mult_123_n39
*847 filter_mult_123_n38
*848 filter_mult_123_n37
*849 filter_mult_123_n36
*850 filter_mult_123_n35
*851 filter_mult_123_n34
*852 filter_mult_123_n33
*853 filter_mult_123_n31
*854 filter_mult_123_n30
*855 filter_mult_123_n29
*856 filter_mult_123_n28
*857 filter_mult_123_n27
*858 filter_mult_123_n25
*859 filter_mult_123_n13
*860 filter_mult_123_n12
*861 filter_mult_123_n11
*862 filter_mult_123_n10
*863 filter_mult_123_n9
*864 filter_mult_123_n8
*865 filter_mult_123_n7
*866 filter_mult_123_n6
*867 filter_mult_123_n5
*868 filter_mult_123_n4
*869 filter_mult_123_n3
*870 filter_mult_133_n545
*871 filter_mult_133_n543
*872 filter_mult_133_n542
*873 filter_mult_133_n541
*874 filter_mult_133_n540
*875 filter_mult_133_n539
*876 filter_mult_133_n538
*877 filter_mult_133_n537
*878 filter_mult_133_n536
*879 filter_mult_133_n535
*880 filter_mult_133_n534
*881 filter_mult_133_n533
*882 filter_mult_133_n532
*883 filter_mult_133_n531
*884 filter_mult_133_n530
*885 filter_mult_133_n528
*886 filter_mult_133_n526
*887 filter_mult_133_n524
*888 filter_mult_133_n522
*889 filter_mult_133_n521
*890 filter_mult_133_n520
*891 filter_mult_133_n519
*892 filter_mult_133_n518
*893 filter_mult_133_n517
*894 filter_mult_133_n516
*895 filter_mult_133_n515
*896 filter_mult_133_n514
*897 filter_mult_133_n513
*898 filter_mult_133_n512
*899 filter_mult_133_n511
*900 filter_mult_133_n510
*901 filter_mult_133_n509
*902 filter_mult_133_n508
*903 filter_mult_133_n507
*904 filter_mult_133_n506
*905 filter_mult_133_n505
*906 filter_mult_133_n504
*907 filter_mult_133_n503
*908 filter_mult_133_n502
*909 filter_mult_133_n501
*910 filter_mult_133_n500
*911 filter_mult_133_n499
*912 filter_mult_133_n498
*913 filter_mult_133_n497
*914 filter_mult_133_n496
*915 filter_mult_133_n495
*916 filter_mult_133_n494
*917 filter_mult_133_n493
*918 filter_mult_133_n492
*919 filter_mult_133_n491
*920 filter_mult_133_n490
*921 filter_mult_133_n489
*922 filter_mult_133_n488
*923 filter_mult_133_n487
*924 filter_mult_133_n486
*925 filter_mult_133_n485
*926 filter_mult_133_n484
*927 filter_mult_133_n483
*928 filter_mult_133_n482
*929 filter_mult_133_n481
*930 filter_mult_133_n480
*931 filter_mult_133_n479
*932 filter_mult_133_n478
*933 filter_mult_133_n477
*934 filter_mult_133_n476
*935 filter_mult_133_n475
*936 filter_mult_133_n474
*937 filter_mult_133_n473
*938 filter_mult_133_n472
*939 filter_mult_133_n471
*940 filter_mult_133_n469
*941 filter_mult_133_n468
*942 filter_mult_133_n467
*943 filter_mult_133_n466
*944 filter_mult_133_n465
*945 filter_mult_133_n464
*946 filter_mult_133_n463
*947 filter_mult_133_n462
*948 filter_mult_133_n461
*949 filter_mult_133_n460
*950 filter_mult_133_n459
*951 filter_mult_133_n458
*952 filter_mult_133_n457
*953 filter_mult_133_n456
*954 filter_mult_133_n455
*955 filter_mult_133_n454
*956 filter_mult_133_n453
*957 filter_mult_133_n452
*958 filter_mult_133_n451
*959 filter_mult_133_n450
*960 filter_mult_133_n449
*961 filter_mult_133_n448
*962 filter_mult_133_n446
*963 filter_mult_133_n445
*964 filter_mult_133_n444
*965 filter_mult_133_n443
*966 filter_mult_133_n442
*967 filter_mult_133_n441
*968 filter_mult_133_n440
*969 filter_mult_133_n439
*970 filter_mult_133_n438
*971 filter_mult_133_n437
*972 filter_mult_133_n436
*973 filter_mult_133_n435
*974 filter_mult_133_n434
*975 filter_mult_133_n432
*976 filter_mult_133_n430
*977 filter_mult_133_n429
*978 filter_mult_133_n428
*979 filter_mult_133_n427
*980 filter_mult_133_n426
*981 filter_mult_133_n425
*982 filter_mult_133_n424
*983 filter_mult_133_n423
*984 filter_mult_133_n422
*985 filter_mult_133_n421
*986 filter_mult_133_n420
*987 filter_mult_133_n419
*988 filter_mult_133_n418
*989 filter_mult_133_n417
*990 filter_mult_133_n416
*991 filter_mult_133_n415
*992 filter_mult_133_n414
*993 filter_mult_133_n413
*994 filter_mult_133_n412
*995 filter_mult_133_n411
*996 filter_mult_133_n403
*997 filter_mult_133_n402
*998 filter_mult_133_n401
*999 filter_mult_133_n227
*1000 filter_mult_133_n226
*1001 filter_mult_133_n225
*1002 filter_mult_133_n224
*1003 filter_mult_133_n223
*1004 filter_mult_133_n222
*1005 filter_mult_133_n221
*1006 filter_mult_133_n220
*1007 filter_mult_133_n219
*1008 filter_mult_133_n216
*1009 filter_mult_133_n215
*1010 filter_mult_133_n214
*1011 filter_mult_133_n213
*1012 filter_mult_133_n212
*1013 filter_mult_133_n211
*1014 filter_mult_133_n210
*1015 filter_mult_133_n209
*1016 filter_mult_133_n208
*1017 filter_mult_133_n207
*1018 filter_mult_133_n205
*1019 filter_mult_133_n204
*1020 filter_mult_133_n203
*1021 filter_mult_133_n202
*1022 filter_mult_133_n201
*1023 filter_mult_133_n200
*1024 filter_mult_133_n199
*1025 filter_mult_133_n198
*1026 filter_mult_133_n196
*1027 filter_mult_133_n195
*1028 filter_mult_133_n193
*1029 filter_mult_133_n192
*1030 filter_mult_133_n191
*1031 filter_mult_133_n190
*1032 filter_mult_133_n189
*1033 filter_mult_133_n188
*1034 filter_mult_133_n187
*1035 filter_mult_133_n186
*1036 filter_mult_133_n185
*1037 filter_mult_133_n184
*1038 filter_mult_133_n183
*1039 filter_mult_133_n181
*1040 filter_mult_133_n180
*1041 filter_mult_133_n179
*1042 filter_mult_133_n178
*1043 filter_mult_133_n176
*1044 filter_mult_133_n175
*1045 filter_mult_133_n174
*1046 filter_mult_133_n173
*1047 filter_mult_133_n172
*1048 filter_mult_133_n171
*1049 filter_mult_133_n169
*1050 filter_mult_133_n168
*1051 filter_mult_133_n167
*1052 filter_mult_133_n166
*1053 filter_mult_133_n165
*1054 filter_mult_133_n164
*1055 filter_mult_133_n163
*1056 filter_mult_133_n162
*1057 filter_mult_133_n161
*1058 filter_mult_133_n160
*1059 filter_mult_133_n159
*1060 filter_mult_133_n155
*1061 filter_mult_133_n154
*1062 filter_mult_133_n153
*1063 filter_mult_133_n152
*1064 filter_mult_133_n134
*1065 filter_mult_133_n133
*1066 filter_mult_133_n132
*1067 filter_mult_133_n131
*1068 filter_mult_133_n130
*1069 filter_mult_133_n129
*1070 filter_mult_133_n128
*1071 filter_mult_133_n127
*1072 filter_mult_133_n126
*1073 filter_mult_133_n125
*1074 filter_mult_133_n124
*1075 filter_mult_133_n123
*1076 filter_mult_133_n122
*1077 filter_mult_133_n121
*1078 filter_mult_133_n120
*1079 filter_mult_133_n119
*1080 filter_mult_133_n118
*1081 filter_mult_133_n117
*1082 filter_mult_133_n116
*1083 filter_mult_133_n115
*1084 filter_mult_133_n114
*1085 filter_mult_133_n113
*1086 filter_mult_133_n112
*1087 filter_mult_133_n111
*1088 filter_mult_133_n110
*1089 filter_mult_133_n109
*1090 filter_mult_133_n108
*1091 filter_mult_133_n107
*1092 filter_mult_133_n106
*1093 filter_mult_133_n105
*1094 filter_mult_133_n104
*1095 filter_mult_133_n103
*1096 filter_mult_133_n102
*1097 filter_mult_133_n101
*1098 filter_mult_133_n100
*1099 filter_mult_133_n99
*1100 filter_mult_133_n98
*1101 filter_mult_133_n97
*1102 filter_mult_133_n96
*1103 filter_mult_133_n95
*1104 filter_mult_133_n94
*1105 filter_mult_133_n93
*1106 filter_mult_133_n92
*1107 filter_mult_133_n91
*1108 filter_mult_133_n90
*1109 filter_mult_133_n89
*1110 filter_mult_133_n88
*1111 filter_mult_133_n87
*1112 filter_mult_133_n86
*1113 filter_mult_133_n85
*1114 filter_mult_133_n84
*1115 filter_mult_133_n83
*1116 filter_mult_133_n82
*1117 filter_mult_133_n81
*1118 filter_mult_133_n80
*1119 filter_mult_133_n79
*1120 filter_mult_133_n78
*1121 filter_mult_133_n77
*1122 filter_mult_133_n76
*1123 filter_mult_133_n75
*1124 filter_mult_133_n73
*1125 filter_mult_133_n72
*1126 filter_mult_133_n71
*1127 filter_mult_133_n70
*1128 filter_mult_133_n69
*1129 filter_mult_133_n68
*1130 filter_mult_133_n67
*1131 filter_mult_133_n66
*1132 filter_mult_133_n65
*1133 filter_mult_133_n64
*1134 filter_mult_133_n63
*1135 filter_mult_133_n62
*1136 filter_mult_133_n61
*1137 filter_mult_133_n60
*1138 filter_mult_133_n59
*1139 filter_mult_133_n58
*1140 filter_mult_133_n57
*1141 filter_mult_133_n55
*1142 filter_mult_133_n54
*1143 filter_mult_133_n53
*1144 filter_mult_133_n52
*1145 filter_mult_133_n51
*1146 filter_mult_133_n50
*1147 filter_mult_133_n49
*1148 filter_mult_133_n48
*1149 filter_mult_133_n47
*1150 filter_mult_133_n46
*1151 filter_mult_133_n45
*1152 filter_mult_133_n44
*1153 filter_mult_133_n43
*1154 filter_mult_133_n41
*1155 filter_mult_133_n40
*1156 filter_mult_133_n39
*1157 filter_mult_133_n38
*1158 filter_mult_133_n37
*1159 filter_mult_133_n36
*1160 filter_mult_133_n35
*1161 filter_mult_133_n34
*1162 filter_mult_133_n33
*1163 filter_mult_133_n31
*1164 filter_mult_133_n30
*1165 filter_mult_133_n29
*1166 filter_mult_133_n28
*1167 filter_mult_133_n27
*1168 filter_mult_133_n25
*1169 filter_mult_133_n13
*1170 filter_mult_133_n12