*SPEF "IEEE 1481-1998"
*DESIGN "IIR_filter_optimized"
*DATE "Sun Nov 10 22:45:37 2019"
*VENDOR "Cadence Design Systems, Inc."
*PROGRAM "Innovus"
*VERSION "17.11-s080_1"
*DESIGN_FLOW "COUPLING C" "PIN_CAP NONE" "NAME_SCOPE LOCAL"
*DIVIDER /
*DELIMITER :
*BUS_DELIMITER []
*T_UNIT 1 NS
*C_UNIT 1 PF
*R_UNIT 1 OHM
*L_UNIT 1 HENRY

// MMMC spef file for corner 'my_rc'

*NAME_MAP

*1 DIN[11]
*2 DIN[10]
*3 DIN[9]
*4 DIN[8]
*5 DIN[7]
*6 DIN[6]
*7 DIN[5]
*8 DIN[4]
*9 DIN[3]
*10 DIN[2]
*11 DIN[1]
*12 DIN[0]
*13 CLK
*14 RST_n
*15 VIN
*16 DOUT[11]
*17 DOUT[10]
*18 DOUT[9]
*19 DOUT[8]
*20 DOUT[7]
*21 DOUT[6]
*22 DOUT[5]
*23 DOUT[4]
*24 DOUT[3]
*25 DOUT[2]
*26 DOUT[1]
*27 DOUT[0]
*28 VOUT
*29 FE_OFN16_filter_mult_209_n628
*30 FE_OFN15_filter_mult_117_n575
*31 FE_OFN14_filter_mult_117_n621
*32 FE_OFN13_filter_mult_126_n580
*33 FE_OFN12_filter_mult_123_n654
*34 FE_OFN11_filter_mult_117_n638
*35 FE_OFN10_filter_mult_129_n646
*36 FE_OFN9_filter_mult_206_n651
*37 FE_OFN8_filter_mult_209_n644
*38 FE_OFN7_filter_mult_209_n624
*39 FE_OFN6_filter_mult_120_n647
*40 FE_OFN5_filter_mult_206_n630
*41 FE_OFN4_filter_mult_129_n625
*42 FE_OFN3_filter_mult_126_n635
*43 FE_OFN2_filter_mult_120_n632
*44 FE_OFN1_filter_mult_129_n629
*45 FE_OFN0_filter_mult_123_n633
*46 FE_DBTN3_RST_n
*47 FE_DBTN2_filter_x_delay_4_1
*48 FE_DBTN1_filter_x_delay_2_1
*49 FE_DBTN0_filter_data_in_3
*50 filter_s_1_0_
*51 filter_s_1_10_
*52 filter_s_1_11_
*53 filter_s_1_12_
*54 filter_s_1_13_
*55 filter_s_1_14_
*56 filter_s_1_15_
*57 filter_s_1_16_
*58 filter_s_1_1_
*59 filter_s_1_2_
*60 filter_s_1_3_
*61 filter_s_1_4_
*62 filter_s_1_5_
*63 filter_s_1_6_
*64 filter_s_1_7_
*65 filter_s_1_8_
*66 filter_s_1_9_
*67 filter_s_2_0_
*68 filter_s_2_10_
*69 filter_s_2_11_
*70 filter_s_2_12_
*71 filter_s_2_13_
*72 filter_s_2_14_
*73 filter_s_2_15_
*74 filter_s_2_16_
*75 filter_s_2_1_
*76 filter_s_2_2_
*77 filter_s_2_3_
*78 filter_s_2_4_
*79 filter_s_2_5_
*80 filter_s_2_6_
*81 filter_s_2_7_
*82 filter_s_2_8_
*83 filter_s_2_9_
*84 filter_s_3_0_
*85 filter_s_3_10_
*86 filter_s_3_11_
*87 filter_s_3_12_
*88 filter_s_3_13_
*89 filter_s_3_14_
*90 filter_s_3_15_
*91 filter_s_3_16_
*92 filter_s_3_1_
*93 filter_s_3_2_
*94 filter_s_3_3_
*95 filter_s_3_4_
*96 filter_s_3_5_
*97 filter_s_3_6_
*98 filter_s_3_7_
*99 filter_s_3_8_
*100 filter_s_3_9_
*101 filter_s_5_0_
*102 filter_s_5_10_
*103 filter_s_5_11_
*104 filter_s_5_12_
*105 filter_s_5_13_
*106 filter_s_5_14_
*107 filter_s_5_15_
*108 filter_s_5_16_
*109 filter_s_5_1_
*110 filter_s_5_2_
*111 filter_s_5_3_
*112 filter_s_5_4_
*113 filter_s_5_5_
*114 filter_s_5_6_
*115 filter_s_5_7_
*116 filter_s_5_8_
*117 filter_s_5_9_
*118 filter_REG_CTRL_3_OUT
*119 filter_REG_CTRL_2_OUT
*120 filter_REG_CTRL_1_OUT
*121 filter_Reg_in_n12
*122 filter_Reg_in_n11
*123 filter_Reg_in_n10
*124 filter_Reg_in_n9
*125 filter_Reg_in_n8
*126 filter_Reg_in_n7
*127 filter_Reg_in_n6
*128 filter_Reg_in_n5
*129 filter_Reg_in_n4
*130 filter_Reg_in_n3
*131 filter_Reg_in_n2
*132 filter_Reg_in_n1
*133 filter_Reg_in_n27
*134 filter_Reg_in_n26
*135 filter_Reg_in_n25
*136 filter_Reg_in_n24
*137 filter_Reg_in_n23
*138 filter_Reg_in_n22
*139 filter_Reg_in_n21
*140 filter_Reg_in_n20
*141 filter_Reg_in_n19
*142 filter_Reg_in_n18
*143 filter_Reg_in_n17
*144 filter_Reg_in_n16
*145 filter_Reg_in_n15
*146 filter_Reg_in_n14
*147 filter_Reg_x_delay_1_n43
*148 filter_Reg_x_delay_1_n42
*149 filter_Reg_x_delay_1_n41
*150 filter_Reg_x_delay_1_n40
*151 filter_Reg_x_delay_1_n39
*152 filter_Reg_x_delay_1_n38
*153 filter_Reg_x_delay_1_n37
*154 filter_Reg_x_delay_1_n36
*155 filter_Reg_x_delay_1_n35
*156 filter_Reg_x_delay_1_n34
*157 filter_Reg_x_delay_1_n33
*158 filter_Reg_x_delay_1_n32
*159 filter_Reg_x_delay_1_n31
*160 filter_Reg_x_delay_1_n30
*161 filter_Reg_x_delay_1_n28
*162 filter_Reg_x_delay_1_n13
*163 filter_Reg_x_delay_1_n12
*164 filter_Reg_x_delay_1_n11
*165 filter_Reg_x_delay_1_n10
*166 filter_Reg_x_delay_1_n9
*167 filter_Reg_x_delay_1_n8
*168 filter_Reg_x_delay_1_n7
*169 filter_Reg_x_delay_1_n6
*170 filter_Reg_x_delay_1_n5
*171 filter_Reg_x_delay_1_n4
*172 filter_Reg_x_delay_1_n3
*173 filter_Reg_x_delay_1_n1
*174 filter_Reg_x_delay_1_n44
*175 filter_Reg_x_delay_2_n41
*176 filter_Reg_x_delay_2_n40
*177 filter_Reg_x_delay_2_n39
*178 filter_Reg_x_delay_2_n38
*179 filter_Reg_x_delay_2_n37
*180 filter_Reg_x_delay_2_n36
*181 filter_Reg_x_delay_2_n35
*182 filter_Reg_x_delay_2_n34
*183 filter_Reg_x_delay_2_n33
*184 filter_Reg_x_delay_2_n32
*185 filter_Reg_x_delay_2_n31
*186 filter_Reg_x_delay_2_n30
*187 filter_Reg_x_delay_2_n29
*188 filter_Reg_x_delay_2_n28
*189 filter_Reg_x_delay_2_n12
*190 filter_Reg_x_delay_2_n11
*191 filter_Reg_x_delay_2_n10
*192 filter_Reg_x_delay_2_n9
*193 filter_Reg_x_delay_2_n8
*194 filter_Reg_x_delay_2_n7
*195 filter_Reg_x_delay_2_n6
*196 filter_Reg_x_delay_2_n5
*197 filter_Reg_x_delay_2_n4
*198 filter_Reg_x_delay_2_n3
*199 filter_Reg_x_delay_2_n2
*200 filter_Reg_x_delay_2_n1
*201 filter_Reg_x_delay_3_n41
*202 filter_Reg_x_delay_3_n40
*203 filter_Reg_x_delay_3_n39
*204 filter_Reg_x_delay_3_n38
*205 filter_Reg_x_delay_3_n37
*206 filter_Reg_x_delay_3_n36
*207 filter_Reg_x_delay_3_n35
*208 filter_Reg_x_delay_3_n34
*209 filter_Reg_x_delay_3_n33
*210 filter_Reg_x_delay_3_n32
*211 filter_Reg_x_delay_3_n31
*212 filter_Reg_x_delay_3_n30
*213 filter_Reg_x_delay_3_n29
*214 filter_Reg_x_delay_3_n28
*215 filter_Reg_x_delay_3_n12
*216 filter_Reg_x_delay_3_n11
*217 filter_Reg_x_delay_3_n10
*218 filter_Reg_x_delay_3_n9
*219 filter_Reg_x_delay_3_n8
*220 filter_Reg_x_delay_3_n7
*221 filter_Reg_x_delay_3_n6
*222 filter_Reg_x_delay_3_n5
*223 filter_Reg_x_delay_3_n4
*224 filter_Reg_x_delay_3_n3
*225 filter_Reg_x_delay_3_n2
*226 filter_Reg_x_delay_3_n1
*227 filter_Reg_x_delay_4_n41
*228 filter_Reg_x_delay_4_n40
*229 filter_Reg_x_delay_4_n39
*230 filter_Reg_x_delay_4_n38
*231 filter_Reg_x_delay_4_n37
*232 filter_Reg_x_delay_4_n36
*233 filter_Reg_x_delay_4_n35
*234 filter_Reg_x_delay_4_n34
*235 filter_Reg_x_delay_4_n33
*236 filter_Reg_x_delay_4_n32
*237 filter_Reg_x_delay_4_n31
*238 filter_Reg_x_delay_4_n30
*239 filter_Reg_x_delay_4_n29
*240 filter_Reg_x_delay_4_n28
*241 filter_Reg_x_delay_4_n12
*242 filter_Reg_x_delay_4_n11
*243 filter_Reg_x_delay_4_n10
*244 filter_Reg_x_delay_4_n9
*245 filter_Reg_x_delay_4_n8
*246 filter_Reg_x_delay_4_n7
*247 filter_Reg_x_delay_4_n6
*248 filter_Reg_x_delay_4_n5
*249 filter_Reg_x_delay_4_n4
*250 filter_Reg_x_delay_4_n3
*251 filter_Reg_x_delay_4_n2
*252 filter_Reg_x_delay_4_n1
*253 filter_Reg_m1_n17
*254 filter_Reg_m1_n16
*255 filter_Reg_m1_n15
*256 filter_Reg_m1_n14
*257 filter_Reg_m1_n13
*258 filter_Reg_m1_n12
*259 filter_Reg_m1_n11
*260 filter_Reg_m1_n10
*261 filter_Reg_m1_n9
*262 filter_Reg_m1_n8
*263 filter_Reg_m1_n7
*264 filter_Reg_m1_n6
*265 filter_Reg_m1_n5
*266 filter_Reg_m1_n4
*267 filter_Reg_m1_n3
*268 filter_Reg_m1_n2
*269 filter_Reg_m1_n1
*270 filter_Reg_m1_n37
*271 filter_Reg_m1_n36
*272 filter_Reg_m1_n35
*273 filter_Reg_m1_n34
*274 filter_Reg_m1_n33
*275 filter_Reg_m1_n32
*276 filter_Reg_m1_n31
*277 filter_Reg_m1_n30
*278 filter_Reg_m1_n29
*279 filter_Reg_m1_n28
*280 filter_Reg_m1_n27
*281 filter_Reg_m1_n26
*282 filter_Reg_m1_n25
*283 filter_Reg_m1_n24
*284 filter_Reg_m1_n23
*285 filter_Reg_m1_n22
*286 filter_Reg_m1_n21
*287 filter_Reg_m1_n20
*288 filter_Reg_m1_n19
*289 filter_Reg_m2_n56
*290 filter_Reg_m2_n55
*291 filter_Reg_m2_n54
*292 filter_Reg_m2_n53
*293 filter_Reg_m2_n52
*294 filter_Reg_m2_n51
*295 filter_Reg_m2_n50
*296 filter_Reg_m2_n49
*297 filter_Reg_m2_n48
*298 filter_Reg_m2_n47
*299 filter_Reg_m2_n46
*300 filter_Reg_m2_n45
*301 filter_Reg_m2_n44
*302 filter_Reg_m2_n43
*303 filter_Reg_m2_n42
*304 filter_Reg_m2_n41
*305 filter_Reg_m2_n40
*306 filter_Reg_m2_n39
*307 filter_Reg_m2_n38
*308 filter_Reg_m2_n17
*309 filter_Reg_m2_n16
*310 filter_Reg_m2_n15
*311 filter_Reg_m2_n14
*312 filter_Reg_m2_n13
*313 filter_Reg_m2_n12
*314 filter_Reg_m2_n11
*315 filter_Reg_m2_n10
*316 filter_Reg_m2_n9
*317 filter_Reg_m2_n8
*318 filter_Reg_m2_n7
*319 filter_Reg_m2_n6
*320 filter_Reg_m2_n5
*321 filter_Reg_m2_n4
*322 filter_Reg_m2_n3
*323 filter_Reg_m2_n2
*324 filter_Reg_m2_n1
*325 filter_Reg_m3_n56
*326 filter_Reg_m3_n55
*327 filter_Reg_m3_n54
*328 filter_Reg_m3_n53
*329 filter_Reg_m3_n52
*330 filter_Reg_m3_n51
*331 filter_Reg_m3_n50
*332 filter_Reg_m3_n49
*333 filter_Reg_m3_n48
*334 filter_Reg_m3_n47
*335 filter_Reg_m3_n46
*336 filter_Reg_m3_n45
*337 filter_Reg_m3_n44
*338 filter_Reg_m3_n43
*339 filter_Reg_m3_n42
*340 filter_Reg_m3_n41
*341 filter_Reg_m3_n40
*342 filter_Reg_m3_n39
*343 filter_Reg_m3_n38
*344 filter_Reg_m3_n17
*345 filter_Reg_m3_n16
*346 filter_Reg_m3_n15
*347 filter_Reg_m3_n14
*348 filter_Reg_m3_n13
*349 filter_Reg_m3_n12
*350 filter_Reg_m3_n11
*351 filter_Reg_m3_n10
*352 filter_Reg_m3_n9
*353 filter_Reg_m3_n8
*354 filter_Reg_m3_n7
*355 filter_Reg_m3_n6
*356 filter_Reg_m3_n5
*357 filter_Reg_m3_n4
*358 filter_Reg_m3_n3
*359 filter_Reg_m3_n2
*360 filter_Reg_m3_n1
*361 filter_Reg_m4_n56
*362 filter_Reg_m4_n55
*363 filter_Reg_m4_n54
*364 filter_Reg_m4_n53
*365 filter_Reg_m4_n52
*366 filter_Reg_m4_n51
*367 filter_Reg_m4_n50
*368 filter_Reg_m4_n49
*369 filter_Reg_m4_n48
*370 filter_Reg_m4_n47
*371 filter_Reg_m4_n46
*372 filter_Reg_m4_n45
*373 filter_Reg_m4_n44
*374 filter_Reg_m4_n43
*375 filter_Reg_m4_n42
*376 filter_Reg_m4_n41
*377 filter_Reg_m4_n40
*378 filter_Reg_m4_n39
*379 filter_Reg_m4_n38
*380 filter_Reg_m4_n17
*381 filter_Reg_m4_n16
*382 filter_Reg_m4_n15
*383 filter_Reg_m4_n14
*384 filter_Reg_m4_n13
*385 filter_Reg_m4_n12
*386 filter_Reg_m4_n11
*387 filter_Reg_m4_n10
*388 filter_Reg_m4_n9
*389 filter_Reg_m4_n8
*390 filter_Reg_m4_n7
*391 filter_Reg_m4_n6
*392 filter_Reg_m4_n5
*393 filter_Reg_m4_n4
*394 filter_Reg_m4_n3
*395 filter_Reg_m4_n2
*396 filter_Reg_m4_n1
*397 filter_Reg_m5_n56
*398 filter_Reg_m5_n55
*399 filter_Reg_m5_n54
*400 filter_Reg_m5_n53
*401 filter_Reg_m5_n52
*402 filter_Reg_m5_n51
*403 filter_Reg_m5_n50
*404 filter_Reg_m5_n49
*405 filter_Reg_m5_n48
*406 filter_Reg_m5_n47
*407 filter_Reg_m5_n46
*408 filter_Reg_m5_n45
*409 filter_Reg_m5_n44
*410 filter_Reg_m5_n43
*411 filter_Reg_m5_n42
*412 filter_Reg_m5_n41
*413 filter_Reg_m5_n40
*414 filter_Reg_m5_n39
*415 filter_Reg_m5_n38
*416 filter_Reg_m5_n17
*417 filter_Reg_m5_n16
*418 filter_Reg_m5_n15
*419 filter_Reg_m5_n14
*420 filter_Reg_m5_n13
*421 filter_Reg_m5_n12
*422 filter_Reg_m5_n11
*423 filter_Reg_m5_n10
*424 filter_Reg_m5_n9
*425 filter_Reg_m5_n8
*426 filter_Reg_m5_n7
*427 filter_Reg_m5_n6
*428 filter_Reg_m5_n5
*429 filter_Reg_m5_n4
*430 filter_Reg_m5_n3
*431 filter_Reg_m5_n2
*432 filter_Reg_m5_n1
*433 filter_Reg_s4_n56
*434 filter_Reg_s4_n55
*435 filter_Reg_s4_n54
*436 filter_Reg_s4_n53
*437 filter_Reg_s4_n52
*438 filter_Reg_s4_n51
*439 filter_Reg_s4_n50
*440 filter_Reg_s4_n49
*441 filter_Reg_s4_n48
*442 filter_Reg_s4_n47
*443 filter_Reg_s4_n46
*444 filter_Reg_s4_n45
*445 filter_Reg_s4_n44
*446 filter_Reg_s4_n43
*447 filter_Reg_s4_n42
*448 filter_Reg_s4_n41
*449 filter_Reg_s4_n40
*450 filter_Reg_s4_n39
*451 filter_Reg_s4_n38
*452 filter_Reg_s4_n17
*453 filter_Reg_s4_n16
*454 filter_Reg_s4_n15
*455 filter_Reg_s4_n14
*456 filter_Reg_s4_n13
*457 filter_Reg_s4_n12
*458 filter_Reg_s4_n11
*459 filter_Reg_s4_n10
*460 filter_Reg_s4_n9
*461 filter_Reg_s4_n8
*462 filter_Reg_s4_n7
*463 filter_Reg_s4_n6
*464 filter_Reg_s4_n5
*465 filter_Reg_s4_n4
*466 filter_Reg_s4_n3
*467 filter_Reg_s4_n2
*468 filter_Reg_s4_n1
*469 filter_Reg_y_delay_1_n41
*470 filter_Reg_y_delay_1_n40
*471 filter_Reg_y_delay_1_n39
*472 filter_Reg_y_delay_1_n38
*473 filter_Reg_y_delay_1_n37
*474 filter_Reg_y_delay_1_n36
*475 filter_Reg_y_delay_1_n35
*476 filter_Reg_y_delay_1_n34
*477 filter_Reg_y_delay_1_n33
*478 filter_Reg_y_delay_1_n32
*479 filter_Reg_y_delay_1_n31
*480 filter_Reg_y_delay_1_n30
*481 filter_Reg_y_delay_1_n29
*482 filter_Reg_y_delay_1_n28
*483 filter_Reg_y_delay_1_n12
*484 filter_Reg_y_delay_1_n11
*485 filter_Reg_y_delay_1_n10
*486 filter_Reg_y_delay_1_n9
*487 filter_Reg_y_delay_1_n8
*488 filter_Reg_y_delay_1_n7
*489 filter_Reg_y_delay_1_n6
*490 filter_Reg_y_delay_1_n5
*491 filter_Reg_y_delay_1_n4
*492 filter_Reg_y_delay_1_n3
*493 filter_Reg_y_delay_1_n2
*494 filter_Reg_y_delay_1_n1
*495 filter_Reg_y_delay_2_n41
*496 filter_Reg_y_delay_2_n40
*497 filter_Reg_y_delay_2_n39
*498 filter_Reg_y_delay_2_n38
*499 filter_Reg_y_delay_2_n37
*500 filter_Reg_y_delay_2_n36
*501 filter_Reg_y_delay_2_n35
*502 filter_Reg_y_delay_2_n34
*503 filter_Reg_y_delay_2_n33
*504 filter_Reg_y_delay_2_n32
*505 filter_Reg_y_delay_2_n31
*506 filter_Reg_y_delay_2_n30
*507 filter_Reg_y_delay_2_n29
*508 filter_Reg_y_delay_2_n28
*509 filter_Reg_y_delay_2_n12
*510 filter_Reg_y_delay_2_n11
*511 filter_Reg_y_delay_2_n10
*512 filter_Reg_y_delay_2_n9
*513 filter_Reg_y_delay_2_n8
*514 filter_Reg_y_delay_2_n7
*515 filter_Reg_y_delay_2_n6
*516 filter_Reg_y_delay_2_n5
*517 filter_Reg_y_delay_2_n4
*518 filter_Reg_y_delay_2_n3
*519 filter_Reg_y_delay_2_n2
*520 filter_Reg_y_delay_2_n1
*521 filter_Reg_y_delay_3_n41
*522 filter_Reg_y_delay_3_n40
*523 filter_Reg_y_delay_3_n39
*524 filter_Reg_y_delay_3_n38
*525 filter_Reg_y_delay_3_n37
*526 filter_Reg_y_delay_3_n36
*527 filter_Reg_y_delay_3_n35
*528 filter_Reg_y_delay_3_n34
*529 filter_Reg_y_delay_3_n33
*530 filter_Reg_y_delay_3_n32
*531 filter_Reg_y_delay_3_n31
*532 filter_Reg_y_delay_3_n30
*533 filter_Reg_y_delay_3_n29
*534 filter_Reg_y_delay_3_n28
*535 filter_Reg_y_delay_3_n12
*536 filter_Reg_y_delay_3_n11
*537 filter_Reg_y_delay_3_n10
*538 filter_Reg_y_delay_3_n9
*539 filter_Reg_y_delay_3_n8
*540 filter_Reg_y_delay_3_n7
*541 filter_Reg_y_delay_3_n6
*542 filter_Reg_y_delay_3_n5
*543 filter_Reg_y_delay_3_n4
*544 filter_Reg_y_delay_3_n3
*545 filter_Reg_y_delay_3_n2
*546 filter_Reg_y_delay_3_n1
*547 filter_Reg_m6_n56
*548 filter_Reg_m6_n55
*549 filter_Reg_m6_n54
*550 filter_Reg_m6_n53
*551 filter_Reg_m6_n52
*552 filter_Reg_m6_n51
*553 filter_Reg_m6_n50
*554 filter_Reg_m6_n49
*555 filter_Reg_m6_n48
*556 filter_Reg_m6_n47
*557 filter_Reg_m6_n46
*558 filter_Reg_m6_n45
*559 filter_Reg_m6_n44
*560 filter_Reg_m6_n43
*561 filter_Reg_m6_n42
*562 filter_Reg_m6_n41
*563 filter_Reg_m6_n40
*564 filter_Reg_m6_n39
*565 filter_Reg_m6_n38
*566 filter_Reg_m6_n17
*567 filter_Reg_m6_n16
*568 filter_Reg_m6_n15
*569 filter_Reg_m6_n14
*570 filter_Reg_m6_n13
*571 filter_Reg_m6_n12
*572 filter_Reg_m6_n11
*573 filter_Reg_m6_n10
*574 filter_Reg_m6_n9
*575 filter_Reg_m6_n8
*576 filter_Reg_m6_n7
*577 filter_Reg_m6_n6
*578 filter_Reg_m6_n5
*579 filter_Reg_m6_n4
*580 filter_Reg_m6_n3
*581 filter_Reg_m6_n2
*582 filter_Reg_m6_n1
*583 filter_Reg_m7_n56
*584 filter_Reg_m7_n55
*585 filter_Reg_m7_n54
*586 filter_Reg_m7_n53
*587 filter_Reg_m7_n52
*588 filter_Reg_m7_n51
*589 filter_Reg_m7_n50
*590 filter_Reg_m7_n49
*591 filter_Reg_m7_n48
*592 filter_Reg_m7_n47
*593 filter_Reg_m7_n46
*594 filter_Reg_m7_n45
*595 filter_Reg_m7_n44
*596 filter_Reg_m7_n43
*597 filter_Reg_m7_n42
*598 filter_Reg_m7_n41
*599 filter_Reg_m7_n40
*600 filter_Reg_m7_n39
*601 filter_Reg_m7_n38
*602 filter_Reg_m7_n17
*603 filter_Reg_m7_n16
*604 filter_Reg_m7_n15
*605 filter_Reg_m7_n14
*606 filter_Reg_m7_n13
*607 filter_Reg_m7_n12
*608 filter_Reg_m7_n11
*609 filter_Reg_m7_n10
*610 filter_Reg_m7_n9
*611 filter_Reg_m7_n8
*612 filter_Reg_m7_n7
*613 filter_Reg_m7_n6
*614 filter_Reg_m7_n5
*615 filter_Reg_m7_n4
*616 filter_Reg_m7_n3
*617 filter_Reg_m7_n2
*618 filter_Reg_m7_n1
*619 filter_Reg_out_n41
*620 filter_Reg_out_n40
*621 filter_Reg_out_n39
*622 filter_Reg_out_n38
*623 filter_Reg_out_n37
*624 filter_Reg_out_n36
*625 filter_Reg_out_n35
*626 filter_Reg_out_n34
*627 filter_Reg_out_n33
*628 filter_Reg_out_n32
*629 filter_Reg_out_n31
*630 filter_Reg_out_n30
*631 filter_Reg_out_n29
*632 filter_Reg_out_n28
*633 filter_Reg_out_n12
*634 filter_Reg_out_n11
*635 filter_Reg_out_n10
*636 filter_Reg_out_n9
*637 filter_Reg_out_n8
*638 filter_Reg_out_n7
*639 filter_Reg_out_n6
*640 filter_Reg_out_n5
*641 filter_Reg_out_n4
*642 filter_Reg_out_n3
*643 filter_Reg_out_n2
*644 filter_Reg_out_n1
*645 filter_Reg_ctrl_1_n4
*646 filter_Reg_ctrl_1_n3
*647 filter_Reg_ctrl_2_n6
*648 filter_Reg_ctrl_2_n5
*649 filter_Reg_ctrl_2_n1
*650 filter_Reg_ctrl_3_n6
*651 filter_Reg_ctrl_3_n5
*652 filter_Reg_ctrl_VOUT_n6
*653 filter_Reg_ctrl_VOUT_n5
*654 filter_mult_206_n763
*655 filter_mult_206_n762
*656 filter_mult_206_n761
*657 filter_mult_206_n760
*658 filter_mult_206_n759
*659 filter_mult_206_n758
*660 filter_mult_206_n756
*661 filter_mult_206_n753
*662 filter_mult_206_n752
*663 filter_mult_206_n751
*664 filter_mult_206_n750
*665 filter_mult_206_n749
*666 filter_mult_206_n748
*667 filter_mult_206_n747
*668 filter_mult_206_n746
*669 filter_mult_206_n745
*670 filter_mult_206_n744
*671 filter_mult_206_n743
*672 filter_mult_206_n742
*673 filter_mult_206_n741
*674 filter_mult_206_n740
*675 filter_mult_206_n739
*676 filter_mult_206_n738
*677 filter_mult_206_n737
*678 filter_mult_206_n736
*679 filter_mult_206_n735
*680 filter_mult_206_n734
*681 filter_mult_206_n733
*682 filter_mult_206_n732
*683 filter_mult_206_n731
*684 filter_mult_206_n730
*685 filter_mult_206_n729
*686 filter_mult_206_n728
*687 filter_mult_206_n727
*688 filter_mult_206_n726
*689 filter_mult_206_n725
*690 filter_mult_206_n724
*691 filter_mult_206_n723
*692 filter_mult_206_n722
*693 filter_mult_206_n721
*694 filter_mult_206_n720
*695 filter_mult_206_n719
*696 filter_mult_206_n718
*697 filter_mult_206_n717
*698 filter_mult_206_n716
*699 filter_mult_206_n715
*700 filter_mult_206_n714
*701 filter_mult_206_n713
*702 filter_mult_206_n712
*703 filter_mult_206_n711
*704 filter_mult_206_n710
*705 filter_mult_206_n709
*706 filter_mult_206_n708
*707 filter_mult_206_n707
*708 filter_mult_206_n706
*709 filter_mult_206_n705
*710 filter_mult_206_n704
*711 filter_mult_206_n703
*712 filter_mult_206_n702
*713 filter_mult_206_n701
*714 filter_mult_206_n700
*715 filter_mult_206_n699
*716 filter_mult_206_n698
*717 filter_mult_206_n697
*718 filter_mult_206_n696
*719 filter_mult_206_n695
*720 filter_mult_206_n694
*721 filter_mult_206_n693
*722 filter_mult_206_n692
*723 filter_mult_206_n691
*724 filter_mult_206_n690
*725 filter_mult_206_n689
*726 filter_mult_206_n688
*727 filter_mult_206_n687
*728 filter_mult_206_n686
*729 filter_mult_206_n685
*730 filter_mult_206_n684
*731 filter_mult_206_n683
*732 filter_mult_206_n682
*733 filter_mult_206_n681
*734 filter_mult_206_n680
*735 filter_mult_206_n679
*736 filter_mult_206_n678
*737 filter_mult_206_n677
*738 filter_mult_206_n676
*739 filter_mult_206_n675
*740 filter_mult_206_n674
*741 filter_mult_206_n673
*742 filter_mult_206_n672
*743 filter_mult_206_n671
*744 filter_mult_206_n670
*745 filter_mult_206_n669
*746 filter_mult_206_n668
*747 filter_mult_206_n667
*748 filter_mult_206_n666
*749 filter_mult_206_n665
*750 filter_mult_206_n664
*751 filter_mult_206_n663
*752 filter_mult_206_n662
*753 filter_mult_206_n661
*754 filter_mult_206_n660
*755 filter_mult_206_n659
*756 filter_mult_206_n658
*757 filter_mult_206_n657
*758 filter_mult_206_n656
*759 filter_mult_206_n654
*760 filter_mult_206_n653
*761 filter_mult_206_n652
*762 filter_mult_206_n651
*763 filter_mult_206_n649
*764 filter_mult_206_n647
*765 filter_mult_206_n646
*766 filter_mult_206_n645
*767 filter_mult_206_n644
*768 filter_mult_206_n643
*769 filter_mult_206_n642
*770 filter_mult_206_n641
*771 filter_mult_206_n640
*772 filter_mult_206_n639
*773 filter_mult_206_n638
*774 filter_mult_206_n637
*775 filter_mult_206_n636
*776 filter_mult_206_n635
*777 filter_mult_206_n634
*778 filter_mult_206_n633
*779 filter_mult_206_n632
*780 filter_mult_206_n631
*781 filter_mult_206_n630
*782 filter_mult_206_n629
*783 filter_mult_206_n628
*784 filter_mult_206_n627
*785 filter_mult_206_n625
*786 filter_mult_206_n624
*787 filter_mult_206_n623
*788 filter_mult_206_n622
*789 filter_mult_206_n621
*790 filter_mult_206_n619
*791 filter_mult_206_n618
*792 filter_mult_206_n617
*793 filter_mult_206_n616
*794 filter_mult_206_n615
*795 filter_mult_206_n614
*796 filter_mult_206_n613
*797 filter_mult_206_n612
*798 filter_mult_206_n611
*799 filter_mult_206_n610
*800 filter_mult_206_n609
*801 filter_mult_206_n608
*802 filter_mult_206_n607
*803 filter_mult_206_n606
*804 filter_mult_206_n605
*805 filter_mult_206_n604
*806 filter_mult_206_n603
*807 filter_mult_206_n602
*808 filter_mult_206_n601
*809 filter_mult_206_n600
*810 filter_mult_206_n599
*811 filter_mult_206_n598
*812 filter_mult_206_n597
*813 filter_mult_206_n596
*814 filter_mult_206_n595
*815 filter_mult_206_n594
*816 filter_mult_206_n593
*817 filter_mult_206_n592
*818 filter_mult_206_n591
*819 filter_mult_206_n590
*820 filter_mult_206_n589
*821 filter_mult_206_n588
*822 filter_mult_206_n587
*823 filter_mult_206_n586
*824 filter_mult_206_n585
*825 filter_mult_206_n584
*826 filter_mult_206_n583
*827 filter_mult_206_n582
*828 filter_mult_206_n581
*829 filter_mult_206_n580
*830 filter_mult_206_n579
*831 filter_mult_206_n578
*832 filter_mult_206_n577
*833 filter_mult_206_n576
*834 filter_mult_206_n574
*835 filter_mult_206_n573
*836 filter_mult_206_n572
*837 filter_mult_206_n571
*838 filter_mult_206_n563
*839 filter_mult_206_n562
*840 filter_mult_206_n561
*841 filter_mult_206_n560
*842 filter_mult_206_n559
*843 filter_mult_206_n558
*844 filter_mult_206_n557
*845 filter_mult_206_n556
*846 filter_mult_206_n555
*847 filter_mult_206_n554
*848 filter_mult_206_n553
*849 filter_mult_206_n552
*850 filter_mult_206_n551
*851 filter_mult_206_n550
*852 filter_mult_206_n549
*853 filter_mult_206_n348
*854 filter_mult_206_n347
*855 filter_mult_206_n346
*856 filter_mult_206_n345
*857 filter_mult_206_n344
*858 filter_mult_206_n343
*859 filter_mult_206_n342
*860 filter_mult_206_n341
*861 filter_mult_206_n340
*862 filter_mult_206_n339
*863 filter_mult_206_n338
*864 filter_mult_206_n337
*865 filter_mult_206_n336
*866 filter_mult_206_n335
*867 filter_mult_206_n332
*868 filter_mult_206_n331
*869 filter_mult_206_n330
*870 filter_mult_206_n329
*871 filter_mult_206_n328
*872 filter_mult_206_n327
*873 filter_mult_206_n326
*874 filter_mult_206_n325
*875 filter_mult_206_n324
*876 filter_mult_206_n323
*877 filter_mult_206_n322
*878 filter_mult_206_n321
*879 filter_mult_206_n320
*880 filter_mult_206_n319
*881 filter_mult_206_n318
*882 filter_mult_206_n317
*883 filter_mult_206_n316
*884 filter_mult_206_n315
*885 filter_mult_206_n314
*886 filter_mult_206_n313
*887 filter_mult_206_n312
*888 filter_mult_206_n311
*889 filter_mult_206_n310
*890 filter_mult_206_n309
*891 filter_mult_206_n308
*892 filter_mult_206_n307
*893 filter_mult_206_n306
*894 filter_mult_206_n305
*895 filter_mult_206_n304
*896 filter_mult_206_n302
*897 filter_mult_206_n301
*898 filter_mult_206_n299
*899 filter_mult_206_n298
*900 filter_mult_206_n297
*901 filter_mult_206_n296
*902 filter_mult_206_n295
*903 filter_mult_206_n294
*904 filter_mult_206_n293
*905 filter_mult_206_n292
*906 filter_mult_206_n291
*907 filter_mult_206_n290
*908 filter_mult_206_n289
*909 filter_mult_206_n288
*910 filter_mult_206_n287
*911 filter_mult_206_n286
*912 filter_mult_206_n285
*913 filter_mult_206_n284
*914 filter_mult_206_n282
*915 filter_mult_206_n281
*916 filter_mult_206_n280
*917 filter_mult_206_n279
*918 filter_mult_206_n278
*919 filter_mult_206_n277
*920 filter_mult_206_n276
*921 filter_mult_206_n275
*922 filter_mult_206_n274
*923 filter_mult_206_n272
*924 filter_mult_206_n271
*925 filter_mult_206_n270
*926 filter_mult_206_n269
*927 filter_mult_206_n268
*928 filter_mult_206_n267
*929 filter_mult_206_n265
*930 filter_mult_206_n264
*931 filter_mult_206_n263
*932 filter_mult_206_n262
*933 filter_mult_206_n261
*934 filter_mult_206_n260
*935 filter_mult_206_n259
*936 filter_mult_206_n258
*937 filter_mult_206_n257
*938 filter_mult_206_n256
*939 filter_mult_206_n255
*940 filter_mult_206_n254
*941 filter_mult_206_n253
*942 filter_mult_206_n252
*943 filter_mult_206_n251
*944 filter_mult_206_n250
*945 filter_mult_206_n246
*946 filter_mult_206_n245
*947 filter_mult_206_n244
*948 filter_mult_206_n243
*949 filter_mult_206_n225
*950 filter_mult_206_n224
*951 filter_mult_206_n223
*952 filter_mult_206_n221
*953 filter_mult_206_n220
*954 filter_mult_206_n219
*955 filter_mult_206_n218
*956 filter_mult_206_n217
*957 filter_mult_206_n216
*958 filter_mult_206_n215
*959 filter_mult_206_n214
*960 filter_mult_206_n213
*961 filter_mult_206_n212
*962 filter_mult_206_n211
*963 filter_mult_206_n210
*964 filter_mult_206_n209
*965 filter_mult_206_n208
*966 filter_mult_206_n207
*967 filter_mult_206_n206
*968 filter_mult_206_n205
*969 filter_mult_206_n204
*970 filter_mult_206_n203
*971 filter_mult_206_n202
*972 filter_mult_206_n201
*973 filter_mult_206_n200
*974 filter_mult_206_n199
*975 filter_mult_206_n198
*976 filter_mult_206_n197
*977 filter_mult_206_n196
*978 filter_mult_206_n195
*979 filter_mult_206_n194
*980 filter_mult_206_n193
*981 filter_mult_206_n192
*982 filter_mult_206_n191
*983 filter_mult_206_n190
*984 filter_mult_206_n189
*985 filter_mult_206_n188
*986 filter_mult_206_n187
*987 filter_mult_206_n186
*988 filter_mult_206_n185
*989 filter_mult_206_n184
*990 filter_mult_206_n183
*991 filter_mult_206_n182
*992 filter_mult_206_n181
*993 filter_mult_206_n180
*994 filter_mult_206_n179
*995 filter_mult_206_n178
*996 filter_mult_206_n177
*997 filter_mult_206_n176
*998 filter_mult_206_n175
*999 filter_mult_206_n174
*1000 filter_mult_206_n173
*1001 filter_mult_206_n172
*1002 filter_mult_206_n171
*1003 filter_mult_206_n170
*1004 filter_mult_206_n169
*1005 filter_mult_206_n168
*1006 filter_mult_206_n167
*1007 filter_mult_206_n166
*1008 filter_mult_206_n165
*1009 filter_mult_206_n164
*1010 filter_mult_206_n163
*1011 filter_mult_206_n162
*1012 filter_mult_206_n161
*1013 filter_mult_206_n160
*1014 filter_mult_206_n159
*1015 filter_mult_206_n158
*1016 filter_mult_206_n157
*1017 filter_mult_206_n156
*1018 filter_mult_206_n155
*1019 filter_mult_206_n154
*1020 filter_mult_206_n153
*1021 filter_mult_206_n152
*1022 filter_mult_206_n151
*1023 filter_mult_206_n150
*1024 filter_mult_206_n149
*1025 filter_mult_206_n148
*1026 filter_mult_206_n147
*1027 filter_mult_206_n146
*1028 filter_mult_206_n145
*1029 filter_mult_206_n144
*1030 filter_mult_206_n143
*1031 filter_mult_206_n142
*1032 filter_mult_206_n141
*1033 filter_mult_206_n140
*1034 filter_mult_206_n139
*1035 filter_mult_206_n138
*1036 filter_mult_206_n137
*1037 filter_mult_206_n136
*1038 filter_mult_206_n135
*1039 filter_mult_206_n134
*1040 filter_mult_206_n133
*1041 filter_mult_206_n132
*1042 filter_mult_206_n131
*1043 filter_mult_206_n130
*1044 filter_mult_206_n129
*1045 filter_mult_206_n128
*1046 filter_mult_206_n127
*1047 filter_mult_206_n126
*1048 filter_mult_206_n125
*1049 filter_mult_206_n124
*1050 filter_mult_206_n123
*1051 filter_mult_206_n122
*1052 filter_mult_206_n121
*1053 filter_mult_206_n120
*1054 filter_mult_206_n119
*1055 filter_mult_206_n118
*1056 filter_mult_206_n117
*1057 filter_mult_206_n116
*1058 filter_mult_206_n114
*1059 filter_mult_206_n113
*1060 filter_mult_206_n112
*1061 filter_mult_206_n111
*1062 filter_mult_206_n110
*1063 filter_mult_206_n109
*1064 filter_mult_206_n108
*1065 filter_mult_206_n107
*1066 filter_mult_206_n106
*1067 filter_mult_206_n105
*1068 filter_mult_206_n104
*1069 filter_mult_206_n103
*1070 filter_mult_206_n102
*1071 filter_mult_206_n101
*1072 filter_mult_206_n100
*1073 filter_mult_206_n99
*1074 filter_mult_206_n98
*1075 filter_mult_206_n96
*1076 filter_mult_206_n95
*1077 filter_mult_206_n94
*1078 filter_mult_206_n93
*1079 filter_mult_206_n92
*1080 filter_mult_206_n91
*1081 filter_mult_206_n90
*1082 filter_mult_206_n89
*1083 filter_mult_206_n88
*1084 filter_mult_206_n87
*1085 filter_mult_206_n86
*1086 filter_mult_206_n85
*1087 filter_mult_206_n84
*1088 filter_mult_206_n82
*1089 filter_mult_206_n81
*1090 filter_mult_206_n80
*1091 filter_mult_206_n79
*1092 filter_mult_206_n78
*1093 filter_mult_206_n77
*1094 filter_mult_206_n76
*1095 filter_mult_206_n75
*1096 filter_mult_206_n74
*1097 filter_mult_206_n72
*1098 filter_mult_206_n71
*1099 filter_mult_206_n70
*1100 filter_mult_206_n69
*1101 filter_mult_206_n68
*1102 filter_mult_206_n67
*1103 filter_mult_206_n55
*1104 filter_mult_206_n54
*1105 filter_mult_206_n53
*1106 filter_mult_206_n52
*1107 filter_mult_206_n51
*1108 filter_mult_206_n50
*1109 filter_mult_206_n49
*1110 filter_mult_206_n48
*1111 filter_mult_206_n47
*1112 filter_mult_206_n46
*1113 filter_mult_206_n45
*1114 filter_mult_206_n44
*1115 filter_mult_206_n43
*1116 filter_mult_206_n42
*1117 filter_mult_206_n41
*1118 filter_mult_206_n40
*1119 filter_mult_209_n756
*1120 filter_mult_209_n755
*1121 filter_mult_209_n754
*1122 filter_mult_209_n753
*1123 filter_mult_209_n752
*1124 filter_mult_209_n751
*1125 filter_mult_209_n750
*1126 filter_mult_209_n748
*1127 filter_mult_209_n745
*1128 filter_mult_209_n744
*1129 filter_mult_209_n743
*1130 filter_mult_209_n742
*1131 filter_mult_209_n741
*1132 filter_mult_209_n740
*1133 filter_mult_209_n739
*1134 filter_mult_209_n738
*1135 filter_mult_209_n737
*1136 filter_mult_209_n736
*1137 filter_mult_209_n735
*1138 filter_mult_209_n734
*1139 filter_mult_209_n733
*1140 filter_mult_209_n732
*1141 filter_mult_209_n731
*1142 filter_mult_209_n730
*1143 filter_mult_209_n729
*1144 filter_mult_209_n728
*1145 filter_mult_209_n727
*1146 filter_mult_209_n726
*1147 filter_mult_209_n725
*1148 filter_mult_209_n724
*1149 filter_mult_209_n723
*1150 filter_mult_209_n722
*1151 filter_mult_209_n721
*1152 filter_mult_209_n720
*1153 filter_mult_209_n719
*1154 filter_mult_209_n718
*1155 filter_mult_209_n717
*1156 filter_mult_209_n716
*1157 filter_mult_209_n715
*1158 filter_mult_209_n714
*1159 filter_mult_209_n713
*1160 filter_mult_209_n712
*1161 filter_mult_209_n711
*1162 filter_mult_209_n710
*1163 filter_mult_209_n709
*1164 filter_mult_209_n708
*1165 filter_mult_209_n707
*1166 filter_mult_209_n706
*1167 filter_mult_209_n705
*1168 filter_mult_209_n704
*1169 filter_mult_209_n703
*1170 filter_mult_209_n702
*1171 filter_mult_209_n701
*1172 filter_mult_209_n700
*1173 filter_mult_209_n699
*1174 filter_mult_209_n698
*1175 filter_mult_209_n697
*1176 filter_mult_209_n696
*1177 filter_mult_209_n695
*1178 filter_mult_209_n694
*1179 filter_mult_209_n693