*SPEF "IEEE 1481-1998"
*DESIGN "IIR_filter_optimized"
*DATE "Tue Nov 19 17:55:32 2019"
*VENDOR "Cadence Design Systems, Inc."
*PROGRAM "Innovus"
*VERSION "17.11-s080_1"
*DESIGN_FLOW "COUPLING C" "PIN_CAP NONE" "NAME_SCOPE LOCAL"
*DIVIDER /
*DELIMITER :
*BUS_DELIMITER []
*T_UNIT 1 NS
*C_UNIT 1 PF
*R_UNIT 1 OHM
*L_UNIT 1 HENRY

// MMMC spef file for corner 'my_rc'

*NAME_MAP

*1 DIN[11]
*2 DIN[10]
*3 DIN[9]
*4 DIN[8]
*5 DIN[7]
*6 DIN[6]
*7 DIN[5]
*8 DIN[4]
*9 DIN[3]
*10 DIN[2]
*11 DIN[1]
*12 DIN[0]
*13 CLK
*14 RST_n
*15 VIN
*16 DOUT[11]
*17 DOUT[10]
*18 DOUT[9]
*19 DOUT[8]
*20 DOUT[7]
*21 DOUT[6]
*22 DOUT[5]
*23 DOUT[4]
*24 DOUT[3]
*25 DOUT[2]
*26 DOUT[1]
*27 DOUT[0]
*28 VOUT
*29 FE_OFN11_filter_mult_174_n727
*30 FE_OFN10_filter_mult_174_n747
*31 FE_OFN9_filter_mult_185_n665
*32 FE_OFN8_filter_mult_126_n747
*33 FE_OFN7_filter_mult_129_n672
*34 FE_OFN6_filter_mult_203_n745
*35 FE_OFN5_filter_s_A1_reg_delay3_12
*36 FE_OFN4_FE_DBTN6_filter_s_A1_reg_0
*37 FE_OFN3_FE_DBTN6_filter_s_A1_reg_0
*38 FE_OFN2_filter_s_A1_reg_delay1_12
*39 FE_OFN1_filter_s_A1_reg_delay2_12
*40 FE_OFN0_filter_s_A1_reg_12
*41 FE_DBTN21_RST_n
*42 FE_DBTN20_filter_s_A1_reg_delay2_0
*43 FE_DBTN19_filter_s_A1_reg_delay2_1
*44 FE_DBTN18_filter_s_A1_reg_delay2_3
*45 FE_DBTN17_filter_s_A1_reg_delay2_5
*46 FE_DBTN16_filter_s_A1_reg_delay2_7
*47 FE_DBTN15_filter_s_A1_reg_delay2_9
*48 FE_DBTN14_filter_s_A1_reg_delay2_11
*49 FE_DBTN13_filter_s_A1_reg_delay1_0
*50 FE_DBTN12_filter_s_A1_reg_delay1_1
*51 FE_DBTN11_filter_s_A1_reg_delay1_3
*52 FE_DBTN10_filter_s_A1_reg_delay1_5
*53 FE_DBTN9_filter_s_A1_reg_delay1_7
*54 FE_DBTN8_filter_s_A1_reg_delay1_9
*55 FE_DBTN7_filter_s_A1_reg_delay1_11
*56 FE_DBTN6_filter_s_A1_reg_0
*57 FE_DBTN5_filter_s_A1_reg_1
*58 FE_DBTN4_filter_s_A1_reg_3
*59 FE_DBTN3_filter_s_A1_reg_5
*60 FE_DBTN2_filter_s_A1_reg_7
*61 FE_DBTN1_filter_s_A1_reg_9
*62 FE_DBTN0_filter_s_A1_reg_11
*63 filter_s_B2_0_
*64 filter_s_B2_10_
*65 filter_s_B2_11_
*66 filter_s_B2_12_
*67 filter_s_B2_13_
*68 filter_s_B2_14_
*69 filter_s_B2_15_
*70 filter_s_B2_16_
*71 filter_s_B2_1_
*72 filter_s_B2_2_
*73 filter_s_B2_3_
*74 filter_s_B2_4_
*75 filter_s_B2_5_
*76 filter_s_B2_6_
*77 filter_s_B2_7_
*78 filter_s_B2_8_
*79 filter_s_B2_9_
*80 filter_s_B3_0_
*81 filter_s_B3_10_
*82 filter_s_B3_11_
*83 filter_s_B3_12_
*84 filter_s_B3_13_
*85 filter_s_B3_14_
*86 filter_s_B3_15_
*87 filter_s_B3_16_
*88 filter_s_B3_1_
*89 filter_s_B3_2_
*90 filter_s_B3_3_
*91 filter_s_B3_4_
*92 filter_s_B3_5_
*93 filter_s_B3_6_
*94 filter_s_B3_7_
*95 filter_s_B3_8_
*96 filter_s_B3_9_
*97 filter_s_A2_10_
*98 filter_s_A2_11_
*99 filter_s_A2_12_
*100 filter_s_A2_13_
*101 filter_s_A2_14_
*102 filter_s_A2_15_
*103 filter_s_A2_16_
*104 filter_s_A2_5_
*105 filter_s_A2_6_
*106 filter_s_A2_7_
*107 filter_s_A2_8_
*108 filter_s_A2_9_
*109 filter_REG_CTRL_3_OUT
*110 filter_REG_CTRL_2_OUT
*111 filter_REG_CTRL_1_OUT
*112 filter_Reg_in_n12
*113 filter_Reg_in_n11
*114 filter_Reg_in_n10
*115 filter_Reg_in_n9
*116 filter_Reg_in_n8
*117 filter_Reg_in_n7
*118 filter_Reg_in_n6
*119 filter_Reg_in_n5
*120 filter_Reg_in_n4
*121 filter_Reg_in_n3
*122 filter_Reg_in_n2
*123 filter_Reg_in_n1
*124 filter_Reg_in_n27
*125 filter_Reg_in_n26
*126 filter_Reg_in_n25
*127 filter_Reg_in_n24
*128 filter_Reg_in_n23
*129 filter_Reg_in_n22
*130 filter_Reg_in_n21
*131 filter_Reg_in_n20
*132 filter_Reg_in_n19
*133 filter_Reg_in_n18
*134 filter_Reg_in_n17
*135 filter_Reg_in_n16
*136 filter_Reg_in_n15
*137 filter_Reg_in_n14
*138 filter_Reg_s_A1_0_n13
*139 filter_Reg_s_A1_0_n12
*140 filter_Reg_s_A1_0_n11
*141 filter_Reg_s_A1_0_n10
*142 filter_Reg_s_A1_0_n9
*143 filter_Reg_s_A1_0_n8
*144 filter_Reg_s_A1_0_n7
*145 filter_Reg_s_A1_0_n6
*146 filter_Reg_s_A1_0_n5
*147 filter_Reg_s_A1_0_n4
*148 filter_Reg_s_A1_0_n3
*149 filter_Reg_s_A1_0_n2
*150 filter_Reg_s_A1_0_n1
*151 filter_Reg_s_A1_0_n29
*152 filter_Reg_s_A1_0_n28
*153 filter_Reg_s_A1_0_n27
*154 filter_Reg_s_A1_0_n26
*155 filter_Reg_s_A1_0_n25
*156 filter_Reg_s_A1_0_n24
*157 filter_Reg_s_A1_0_n23
*158 filter_Reg_s_A1_0_n22
*159 filter_Reg_s_A1_0_n21
*160 filter_Reg_s_A1_0_n20
*161 filter_Reg_s_A1_0_n19
*162 filter_Reg_s_A1_0_n18
*163 filter_Reg_s_A1_0_n17
*164 filter_Reg_s_A1_0_n16
*165 filter_Reg_s_A1_0_n15
*166 filter_Reg_s_A1_1_n44
*167 filter_Reg_s_A1_1_n43
*168 filter_Reg_s_A1_1_n42
*169 filter_Reg_s_A1_1_n41
*170 filter_Reg_s_A1_1_n40
*171 filter_Reg_s_A1_1_n39
*172 filter_Reg_s_A1_1_n38
*173 filter_Reg_s_A1_1_n37
*174 filter_Reg_s_A1_1_n36
*175 filter_Reg_s_A1_1_n35
*176 filter_Reg_s_A1_1_n34
*177 filter_Reg_s_A1_1_n33
*178 filter_Reg_s_A1_1_n32
*179 filter_Reg_s_A1_1_n31
*180 filter_Reg_s_A1_1_n30
*181 filter_Reg_s_A1_1_n13
*182 filter_Reg_s_A1_1_n12
*183 filter_Reg_s_A1_1_n11
*184 filter_Reg_s_A1_1_n10
*185 filter_Reg_s_A1_1_n9
*186 filter_Reg_s_A1_1_n8
*187 filter_Reg_s_A1_1_n7
*188 filter_Reg_s_A1_1_n6
*189 filter_Reg_s_A1_1_n5
*190 filter_Reg_s_A1_1_n4
*191 filter_Reg_s_A1_1_n3
*192 filter_Reg_s_A1_1_n2
*193 filter_Reg_s_A1_1_n1
*194 filter_Reg_s_A1_2_n44
*195 filter_Reg_s_A1_2_n43
*196 filter_Reg_s_A1_2_n42
*197 filter_Reg_s_A1_2_n41
*198 filter_Reg_s_A1_2_n40
*199 filter_Reg_s_A1_2_n39
*200 filter_Reg_s_A1_2_n38
*201 filter_Reg_s_A1_2_n37
*202 filter_Reg_s_A1_2_n36
*203 filter_Reg_s_A1_2_n35
*204 filter_Reg_s_A1_2_n34
*205 filter_Reg_s_A1_2_n33
*206 filter_Reg_s_A1_2_n32
*207 filter_Reg_s_A1_2_n31
*208 filter_Reg_s_A1_2_n30
*209 filter_Reg_s_A1_2_n13
*210 filter_Reg_s_A1_2_n12
*211 filter_Reg_s_A1_2_n11
*212 filter_Reg_s_A1_2_n10
*213 filter_Reg_s_A1_2_n9
*214 filter_Reg_s_A1_2_n8
*215 filter_Reg_s_A1_2_n7
*216 filter_Reg_s_A1_2_n6
*217 filter_Reg_s_A1_2_n5
*218 filter_Reg_s_A1_2_n4
*219 filter_Reg_s_A1_2_n3
*220 filter_Reg_s_A1_2_n2
*221 filter_Reg_s_A1_2_n1
*222 filter_Reg_m_A1_n17
*223 filter_Reg_m_A1_n16
*224 filter_Reg_m_A1_n15
*225 filter_Reg_m_A1_n14
*226 filter_Reg_m_A1_n13
*227 filter_Reg_m_A1_n12
*228 filter_Reg_m_A1_n11
*229 filter_Reg_m_A1_n10
*230 filter_Reg_m_A1_n9
*231 filter_Reg_m_A1_n8
*232 filter_Reg_m_A1_n7
*233 filter_Reg_m_A1_n6
*234 filter_Reg_m_A1_n5
*235 filter_Reg_m_A1_n4
*236 filter_Reg_m_A1_n3
*237 filter_Reg_m_A1_n2
*238 filter_Reg_m_A1_n1
*239 filter_Reg_m_A1_n37
*240 filter_Reg_m_A1_n36
*241 filter_Reg_m_A1_n35
*242 filter_Reg_m_A1_n34
*243 filter_Reg_m_A1_n33
*244 filter_Reg_m_A1_n32
*245 filter_Reg_m_A1_n31
*246 filter_Reg_m_A1_n30
*247 filter_Reg_m_A1_n29
*248 filter_Reg_m_A1_n28
*249 filter_Reg_m_A1_n27
*250 filter_Reg_m_A1_n26
*251 filter_Reg_m_A1_n25
*252 filter_Reg_m_A1_n24
*253 filter_Reg_m_A1_n23
*254 filter_Reg_m_A1_n22
*255 filter_Reg_m_A1_n21
*256 filter_Reg_m_A1_n20
*257 filter_Reg_m_A1_n19
*258 filter_Reg_m_A2_n56
*259 filter_Reg_m_A2_n55
*260 filter_Reg_m_A2_n54
*261 filter_Reg_m_A2_n53
*262 filter_Reg_m_A2_n52
*263 filter_Reg_m_A2_n51
*264 filter_Reg_m_A2_n50
*265 filter_Reg_m_A2_n49
*266 filter_Reg_m_A2_n48
*267 filter_Reg_m_A2_n47
*268 filter_Reg_m_A2_n46
*269 filter_Reg_m_A2_n45
*270 filter_Reg_m_A2_n44
*271 filter_Reg_m_A2_n43
*272 filter_Reg_m_A2_n42
*273 filter_Reg_m_A2_n41
*274 filter_Reg_m_A2_n40
*275 filter_Reg_m_A2_n39
*276 filter_Reg_m_A2_n38
*277 filter_Reg_m_A2_n17
*278 filter_Reg_m_A2_n16
*279 filter_Reg_m_A2_n15
*280 filter_Reg_m_A2_n14
*281 filter_Reg_m_A2_n13
*282 filter_Reg_m_A2_n12
*283 filter_Reg_m_A2_n11
*284 filter_Reg_m_A2_n10
*285 filter_Reg_m_A2_n9
*286 filter_Reg_m_A2_n8
*287 filter_Reg_m_A2_n7
*288 filter_Reg_m_A2_n6
*289 filter_Reg_m_A2_n5
*290 filter_Reg_m_A2_n4
*291 filter_Reg_m_A2_n3
*292 filter_Reg_m_A2_n2
*293 filter_Reg_m_A2_n1
*294 filter_Reg_m_B0_n56
*295 filter_Reg_m_B0_n55
*296 filter_Reg_m_B0_n54
*297 filter_Reg_m_B0_n53
*298 filter_Reg_m_B0_n52
*299 filter_Reg_m_B0_n51
*300 filter_Reg_m_B0_n50
*301 filter_Reg_m_B0_n49
*302 filter_Reg_m_B0_n48
*303 filter_Reg_m_B0_n47
*304 filter_Reg_m_B0_n46
*305 filter_Reg_m_B0_n45
*306 filter_Reg_m_B0_n44
*307 filter_Reg_m_B0_n43
*308 filter_Reg_m_B0_n42
*309 filter_Reg_m_B0_n41
*310 filter_Reg_m_B0_n40
*311 filter_Reg_m_B0_n39
*312 filter_Reg_m_B0_n38
*313 filter_Reg_m_B0_n17
*314 filter_Reg_m_B0_n16
*315 filter_Reg_m_B0_n15
*316 filter_Reg_m_B0_n14
*317 filter_Reg_m_B0_n13
*318 filter_Reg_m_B0_n12
*319 filter_Reg_m_B0_n11
*320 filter_Reg_m_B0_n10
*321 filter_Reg_m_B0_n9
*322 filter_Reg_m_B0_n8
*323 filter_Reg_m_B0_n7
*324 filter_Reg_m_B0_n6
*325 filter_Reg_m_B0_n5
*326 filter_Reg_m_B0_n4
*327 filter_Reg_m_B0_n3
*328 filter_Reg_m_B0_n2
*329 filter_Reg_m_B0_n1
*330 filter_Reg_m_B1_n56
*331 filter_Reg_m_B1_n55
*332 filter_Reg_m_B1_n54
*333 filter_Reg_m_B1_n53
*334 filter_Reg_m_B1_n52
*335 filter_Reg_m_B1_n51
*336 filter_Reg_m_B1_n50
*337 filter_Reg_m_B1_n49
*338 filter_Reg_m_B1_n48
*339 filter_Reg_m_B1_n47
*340 filter_Reg_m_B1_n46
*341 filter_Reg_m_B1_n45
*342 filter_Reg_m_B1_n44
*343 filter_Reg_m_B1_n43
*344 filter_Reg_m_B1_n42
*345 filter_Reg_m_B1_n41
*346 filter_Reg_m_B1_n40
*347 filter_Reg_m_B1_n39
*348 filter_Reg_m_B1_n38
*349 filter_Reg_m_B1_n17
*350 filter_Reg_m_B1_n16
*351 filter_Reg_m_B1_n15
*352 filter_Reg_m_B1_n14
*353 filter_Reg_m_B1_n13
*354 filter_Reg_m_B1_n12
*355 filter_Reg_m_B1_n11
*356 filter_Reg_m_B1_n10
*357 filter_Reg_m_B1_n9
*358 filter_Reg_m_B1_n8
*359 filter_Reg_m_B1_n7
*360 filter_Reg_m_B1_n6
*361 filter_Reg_m_B1_n5
*362 filter_Reg_m_B1_n4
*363 filter_Reg_m_B1_n3
*364 filter_Reg_m_B1_n2
*365 filter_Reg_m_B1_n1
*366 filter_Reg_m_B2_n56
*367 filter_Reg_m_B2_n55
*368 filter_Reg_m_B2_n54
*369 filter_Reg_m_B2_n53
*370 filter_Reg_m_B2_n52
*371 filter_Reg_m_B2_n51
*372 filter_Reg_m_B2_n50
*373 filter_Reg_m_B2_n49
*374 filter_Reg_m_B2_n48
*375 filter_Reg_m_B2_n47
*376 filter_Reg_m_B2_n46
*377 filter_Reg_m_B2_n45
*378 filter_Reg_m_B2_n44
*379 filter_Reg_m_B2_n43
*380 filter_Reg_m_B2_n42
*381 filter_Reg_m_B2_n41
*382 filter_Reg_m_B2_n40
*383 filter_Reg_m_B2_n39
*384 filter_Reg_m_B2_n38
*385 filter_Reg_m_B2_n17
*386 filter_Reg_m_B2_n16
*387 filter_Reg_m_B2_n15
*388 filter_Reg_m_B2_n14
*389 filter_Reg_m_B2_n13
*390 filter_Reg_m_B2_n12
*391 filter_Reg_m_B2_n11
*392 filter_Reg_m_B2_n10
*393 filter_Reg_m_B2_n9
*394 filter_Reg_m_B2_n8
*395 filter_Reg_m_B2_n7
*396 filter_Reg_m_B2_n6
*397 filter_Reg_m_B2_n5
*398 filter_Reg_m_B2_n4
*399 filter_Reg_m_B2_n3
*400 filter_Reg_m_B2_n2
*401 filter_Reg_m_B2_n1
*402 filter_Reg_m_B3_n56
*403 filter_Reg_m_B3_n55
*404 filter_Reg_m_B3_n54
*405 filter_Reg_m_B3_n53
*406 filter_Reg_m_B3_n52
*407 filter_Reg_m_B3_n51
*408 filter_Reg_m_B3_n50
*409 filter_Reg_m_B3_n49
*410 filter_Reg_m_B3_n48
*411 filter_Reg_m_B3_n47
*412 filter_Reg_m_B3_n46
*413 filter_Reg_m_B3_n45
*414 filter_Reg_m_B3_n44
*415 filter_Reg_m_B3_n43
*416 filter_Reg_m_B3_n42
*417 filter_Reg_m_B3_n41
*418 filter_Reg_m_B3_n40
*419 filter_Reg_m_B3_n39
*420 filter_Reg_m_B3_n38
*421 filter_Reg_m_B3_n17
*422 filter_Reg_m_B3_n16
*423 filter_Reg_m_B3_n15
*424 filter_Reg_m_B3_n14
*425 filter_Reg_m_B3_n13
*426 filter_Reg_m_B3_n12
*427 filter_Reg_m_B3_n11
*428 filter_Reg_m_B3_n10
*429 filter_Reg_m_B3_n9
*430 filter_Reg_m_B3_n8
*431 filter_Reg_m_B3_n7
*432 filter_Reg_m_B3_n6
*433 filter_Reg_m_B3_n5
*434 filter_Reg_m_B3_n4
*435 filter_Reg_m_B3_n3
*436 filter_Reg_m_B3_n2
*437 filter_Reg_m_B3_n1
*438 filter_Reg_s_A1_reg_delay3_n44
*439 filter_Reg_s_A1_reg_delay3_n43
*440 filter_Reg_s_A1_reg_delay3_n42
*441 filter_Reg_s_A1_reg_delay3_n41
*442 filter_Reg_s_A1_reg_delay3_n40
*443 filter_Reg_s_A1_reg_delay3_n39
*444 filter_Reg_s_A1_reg_delay3_n38
*445 filter_Reg_s_A1_reg_delay3_n37
*446 filter_Reg_s_A1_reg_delay3_n36
*447 filter_Reg_s_A1_reg_delay3_n35
*448 filter_Reg_s_A1_reg_delay3_n34
*449 filter_Reg_s_A1_reg_delay3_n33
*450 filter_Reg_s_A1_reg_delay3_n32
*451 filter_Reg_s_A1_reg_delay3_n31
*452 filter_Reg_s_A1_reg_delay3_n30
*453 filter_Reg_s_A1_reg_delay3_n13
*454 filter_Reg_s_A1_reg_delay3_n12
*455 filter_Reg_s_A1_reg_delay3_n11
*456 filter_Reg_s_A1_reg_delay3_n10
*457 filter_Reg_s_A1_reg_delay3_n9
*458 filter_Reg_s_A1_reg_delay3_n8
*459 filter_Reg_s_A1_reg_delay3_n7
*460 filter_Reg_s_A1_reg_delay3_n6
*461 filter_Reg_s_A1_reg_delay3_n5
*462 filter_Reg_s_A1_reg_delay3_n4
*463 filter_Reg_s_A1_reg_delay3_n3
*464 filter_Reg_s_A1_reg_delay3_n2
*465 filter_Reg_s_A1_reg_delay3_n1
*466 filter_Reg_m_B4_n56
*467 filter_Reg_m_B4_n55
*468 filter_Reg_m_B4_n54
*469 filter_Reg_m_B4_n53
*470 filter_Reg_m_B4_n52
*471 filter_Reg_m_B4_n51
*472 filter_Reg_m_B4_n50
*473 filter_Reg_m_B4_n49
*474 filter_Reg_m_B4_n48
*475 filter_Reg_m_B4_n47
*476 filter_Reg_m_B4_n46
*477 filter_Reg_m_B4_n45
*478 filter_Reg_m_B4_n44
*479 filter_Reg_m_B4_n43
*480 filter_Reg_m_B4_n42
*481 filter_Reg_m_B4_n41
*482 filter_Reg_m_B4_n40
*483 filter_Reg_m_B4_n39
*484 filter_Reg_m_B4_n38
*485 filter_Reg_m_B4_n17
*486 filter_Reg_m_B4_n16
*487 filter_Reg_m_B4_n15
*488 filter_Reg_m_B4_n14
*489 filter_Reg_m_B4_n13
*490 filter_Reg_m_B4_n12
*491 filter_Reg_m_B4_n11
*492 filter_Reg_m_B4_n10
*493 filter_Reg_m_B4_n9
*494 filter_Reg_m_B4_n8
*495 filter_Reg_m_B4_n7
*496 filter_Reg_m_B4_n6
*497 filter_Reg_m_B4_n5
*498 filter_Reg_m_B4_n4
*499 filter_Reg_m_B4_n3
*500 filter_Reg_m_B4_n2
*501 filter_Reg_m_B4_n1
*502 filter_Reg_s_B1_n56
*503 filter_Reg_s_B1_n55
*504 filter_Reg_s_B1_n54
*505 filter_Reg_s_B1_n53
*506 filter_Reg_s_B1_n52
*507 filter_Reg_s_B1_n51
*508 filter_Reg_s_B1_n50
*509 filter_Reg_s_B1_n49
*510 filter_Reg_s_B1_n48
*511 filter_Reg_s_B1_n47
*512 filter_Reg_s_B1_n46
*513 filter_Reg_s_B1_n45
*514 filter_Reg_s_B1_n44
*515 filter_Reg_s_B1_n43
*516 filter_Reg_s_B1_n42
*517 filter_Reg_s_B1_n41
*518 filter_Reg_s_B1_n40
*519 filter_Reg_s_B1_n39
*520 filter_Reg_s_B1_n38
*521 filter_Reg_s_B1_n17
*522 filter_Reg_s_B1_n16
*523 filter_Reg_s_B1_n15
*524 filter_Reg_s_B1_n14
*525 filter_Reg_s_B1_n13
*526 filter_Reg_s_B1_n12
*527 filter_Reg_s_B1_n11
*528 filter_Reg_s_B1_n10
*529 filter_Reg_s_B1_n9
*530 filter_Reg_s_B1_n8
*531 filter_Reg_s_B1_n7
*532 filter_Reg_s_B1_n6
*533 filter_Reg_s_B1_n5
*534 filter_Reg_s_B1_n4
*535 filter_Reg_s_B1_n3
*536 filter_Reg_s_B1_n2
*537 filter_Reg_s_B1_n1
*538 filter_Reg_out_n41
*539 filter_Reg_out_n40
*540 filter_Reg_out_n39
*541 filter_Reg_out_n38
*542 filter_Reg_out_n37
*543 filter_Reg_out_n36
*544 filter_Reg_out_n35
*545 filter_Reg_out_n34
*546 filter_Reg_out_n33
*547 filter_Reg_out_n32
*548 filter_Reg_out_n31
*549 filter_Reg_out_n30
*550 filter_Reg_out_n29
*551 filter_Reg_out_n28
*552 filter_Reg_out_n12
*553 filter_Reg_out_n11
*554 filter_Reg_out_n10
*555 filter_Reg_out_n9
*556 filter_Reg_out_n8
*557 filter_Reg_out_n7
*558 filter_Reg_out_n6
*559 filter_Reg_out_n5
*560 filter_Reg_out_n4
*561 filter_Reg_out_n3
*562 filter_Reg_out_n2
*563 filter_Reg_out_n1
*564 filter_Reg_ctrl_1_n4
*565 filter_Reg_ctrl_1_n3
*566 filter_Reg_ctrl_2_n6
*567 filter_Reg_ctrl_2_n5
*568 filter_Reg_ctrl_3_n6
*569 filter_Reg_ctrl_3_n5
*570 filter_Reg_ctrl_3_n1
*571 filter_Reg_ctrl_VOUT_n6
*572 filter_Reg_ctrl_VOUT_n5
*573 filter_add_228_n13
*574 filter_add_228_n12
*575 filter_add_228_n11
*576 filter_add_228_n10
*577 filter_add_228_n9
*578 filter_add_228_n8
*579 filter_add_228_n7
*580 filter_add_228_n6
*581 filter_add_228_n5
*582 filter_add_228_n4
*583 filter_add_228_n3
*584 filter_add_228_n2
*585 filter_add_228_n1
*586 filter_add_124_n13
*587 filter_add_124_n12
*588 filter_add_124_n11
*589 filter_add_124_n10
*590 filter_add_124_n9
*591 filter_add_124_n8
*592 filter_add_124_n7
*593 filter_add_124_n6
*594 filter_add_124_n5
*595 filter_add_124_n4
*596 filter_add_124_n3
*597 filter_add_124_n2
*598 filter_add_124_n1
*599 filter_add_99_n2
*600 filter_add_1_root_add_0_root_add_219_n2
*601 filter_add_2_root_add_0_root_add_219_n2
*602 filter_add_0_root_add_0_root_add_219_n2
*603 filter_mult_203_n820
*604 filter_mult_203_n819
*605 filter_mult_203_n818
*606 filter_mult_203_n817
*607 filter_mult_203_n816
*608 filter_mult_203_n815
*609 filter_mult_203_n814
*610 filter_mult_203_n813
*611 filter_mult_203_n804
*612 filter_mult_203_n803
*613 filter_mult_203_n800
*614 filter_mult_203_n797
*615 filter_mult_203_n796
*616 filter_mult_203_n795
*617 filter_mult_203_n794
*618 filter_mult_203_n793
*619 filter_mult_203_n792
*620 filter_mult_203_n791
*621 filter_mult_203_n790
*622 filter_mult_203_n789
*623 filter_mult_203_n788
*624 filter_mult_203_n787
*625 filter_mult_203_n786
*626 filter_mult_203_n785
*627 filter_mult_203_n784
*628 filter_mult_203_n783
*629 filter_mult_203_n782
*630 filter_mult_203_n781
*631 filter_mult_203_n780
*632 filter_mult_203_n779
*633 filter_mult_203_n778
*634 filter_mult_203_n777
*635 filter_mult_203_n776
*636 filter_mult_203_n775
*637 filter_mult_203_n774
*638 filter_mult_203_n773
*639 filter_mult_203_n772
*640 filter_mult_203_n771
*641 filter_mult_203_n770
*642 filter_mult_203_n769
*643 filter_mult_203_n768
*644 filter_mult_203_n767
*645 filter_mult_203_n766
*646 filter_mult_203_n765
*647 filter_mult_203_n764
*648 filter_mult_203_n763
*649 filter_mult_203_n762
*650 filter_mult_203_n761
*651 filter_mult_203_n760
*652 filter_mult_203_n759
*653 filter_mult_203_n758
*654 filter_mult_203_n757
*655 filter_mult_203_n756
*656 filter_mult_203_n755
*657 filter_mult_203_n754
*658 filter_mult_203_n753
*659 filter_mult_203_n752
*660 filter_mult_203_n751
*661 filter_mult_203_n750
*662 filter_mult_203_n749
*663 filter_mult_203_n748
*664 filter_mult_203_n747
*665 filter_mult_203_n746
*666 filter_mult_203_n745
*667 filter_mult_203_n744
*668 filter_mult_203_n743
*669 filter_mult_203_n742
*670 filter_mult_203_n741
*671 filter_mult_203_n740
*672 filter_mult_203_n739
*673 filter_mult_203_n738
*674 filter_mult_203_n737
*675 filter_mult_203_n736
*676 filter_mult_203_n735
*677 filter_mult_203_n734
*678 filter_mult_203_n733
*679 filter_mult_203_n732
*680 filter_mult_203_n731
*681 filter_mult_203_n730
*682 filter_mult_203_n729
*683 filter_mult_203_n728
*684 filter_mult_203_n727
*685 filter_mult_203_n726
*686 filter_mult_203_n725
*687 filter_mult_203_n723
*688 filter_mult_203_n722
*689 filter_mult_203_n721
*690 filter_mult_203_n720
*691 filter_mult_203_n719
*692 filter_mult_203_n718
*693 filter_mult_203_n717
*694 filter_mult_203_n716
*695 filter_mult_203_n715
*696 filter_mult_203_n714
*697 filter_mult_203_n713
*698 filter_mult_203_n712
*699 filter_mult_203_n711
*700 filter_mult_203_n710
*701 filter_mult_203_n709
*702 filter_mult_203_n708
*703 filter_mult_203_n707
*704 filter_mult_203_n706
*705 filter_mult_203_n704
*706 filter_mult_203_n703
*707 filter_mult_203_n702
*708 filter_mult_203_n701
*709 filter_mult_203_n700
*710 filter_mult_203_n699
*711 filter_mult_203_n698
*712 filter_mult_203_n697
*713 filter_mult_203_n696
*714 filter_mult_203_n695
*715 filter_mult_203_n694
*716 filter_mult_203_n693
*717 filter_mult_203_n692
*718 filter_mult_203_n691
*719 filter_mult_203_n690
*720 filter_mult_203_n688
*721 filter_mult_203_n687
*722 filter_mult_203_n686
*723 filter_mult_203_n685
*724 filter_mult_203_n683
*725 filter_mult_203_n681
*726 filter_mult_203_n680
*727 filter_mult_203_n679
*728 filter_mult_203_n678
*729 filter_mult_203_n677
*730 filter_mult_203_n676
*731 filter_mult_203_n675
*732 filter_mult_203_n674
*733 filter_mult_203_n673
*734 filter_mult_203_n672
*735 filter_mult_203_n671
*736 filter_mult_203_n670
*737 filter_mult_203_n669
*738 filter_mult_203_n668
*739 filter_mult_203_n667
*740 filter_mult_203_n666
*741 filter_mult_203_n665
*742 filter_mult_203_n664
*743 filter_mult_203_n663
*744 filter_mult_203_n662
*745 filter_mult_203_n661
*746 filter_mult_203_n660
*747 filter_mult_203_n659
*748 filter_mult_203_n658
*749 filter_mult_203_n657
*750 filter_mult_203_n656
*751 filter_mult_203_n655
*752 filter_mult_203_n654
*753 filter_mult_203_n653
*754 filter_mult_203_n652
*755 filter_mult_203_n651
*756 filter_mult_203_n650
*757 filter_mult_203_n649
*758 filter_mult_203_n648
*759 filter_mult_203_n647
*760 filter_mult_203_n646
*761 filter_mult_203_n645
*762 filter_mult_203_n644
*763 filter_mult_203_n643
*764 filter_mult_203_n642
*765 filter_mult_203_n641
*766 filter_mult_203_n640
*767 filter_mult_203_n639
*768 filter_mult_203_n638
*769 filter_mult_203_n637
*770 filter_mult_203_n636
*771 filter_mult_203_n635
*772 filter_mult_203_n634
*773 filter_mult_203_n633
*774 filter_mult_203_n632
*775 filter_mult_203_n631
*776 filter_mult_203_n630
*777 filter_mult_203_n629
*778 filter_mult_203_n628
*779 filter_mult_203_n627
*780 filter_mult_203_n403
*781 filter_mult_203_n402
*782 filter_mult_203_n401
*783 filter_mult_203_n400
*784 filter_mult_203_n399
*785 filter_mult_203_n398
*786 filter_mult_203_n397
*787 filter_mult_203_n396
*788 filter_mult_203_n395
*789 filter_mult_203_n394
*790 filter_mult_203_n393
*791 filter_mult_203_n392
*792 filter_mult_203_n391
*793 filter_mult_203_n390
*794 filter_mult_203_n387
*795 filter_mult_203_n386
*796 filter_mult_203_n385
*797 filter_mult_203_n384
*798 filter_mult_203_n383
*799 filter_mult_203_n382
*800 filter_mult_203_n381
*801 filter_mult_203_n380
*802 filter_mult_203_n379
*803 filter_mult_203_n378
*804 filter_mult_203_n377
*805 filter_mult_203_n376
*806 filter_mult_203_n375
*807 filter_mult_203_n374
*808 filter_mult_203_n373
*809 filter_mult_203_n372
*810 filter_mult_203_n371
*811 filter_mult_203_n370
*812 filter_mult_203_n369
*813 filter_mult_203_n368
*814 filter_mult_203_n367
*815 filter_mult_203_n366
*816 filter_mult_203_n365
*817 filter_mult_203_n364
*818 filter_mult_203_n363
*819 filter_mult_203_n362
*820 filter_mult_203_n361
*821 filter_mult_203_n360
*822 filter_mult_203_n359
*823 filter_mult_203_n357
*824 filter_mult_203_n356
*825 filter_mult_203_n354
*826 filter_mult_203_n353
*827 filter_mult_203_n352
*828 filter_mult_203_n351
*829 filter_mult_203_n350
*830 filter_mult_203_n349
*831 filter_mult_203_n348
*832 filter_mult_203_n347
*833 filter_mult_203_n346
*834 filter_mult_203_n345
*835 filter_mult_203_n344
*836 filter_mult_203_n343
*837 filter_mult_203_n342
*838 filter_mult_203_n341
*839 filter_mult_203_n340
*840 filter_mult_203_n339
*841 filter_mult_203_n337
*842 filter_mult_203_n336
*843 filter_mult_203_n335
*844 filter_mult_203_n334
*845 filter_mult_203_n333
*846 filter_mult_203_n332
*847 filter_mult_203_n331
*848 filter_mult_203_n330
*849 filter_mult_203_n329
*850 filter_mult_203_n328
*851 filter_mult_203_n327
*852 filter_mult_203_n326
*853 filter_mult_203_n325
*854 filter_mult_203_n324
*855 filter_mult_203_n323
*856 filter_mult_203_n322
*857 filter_mult_203_n320
*858 filter_mult_203_n319
*859 filter_mult_203_n318
*860 filter_mult_203_n317
*861 filter_mult_203_n316
*862 filter_mult_203_n315
*863 filter_mult_203_n314
*864 filter_mult_203_n312
*865 filter_mult_203_n311
*866 filter_mult_203_n310
*867 filter_mult_203_n309
*868 filter_mult_203_n308
*869 filter_mult_203_n307
*870 filter_mult_203_n306
*871 filter_mult_203_n305
*872 filter_mult_203_n303
*873 filter_mult_203_n302
*874 filter_mult_203_n301
*875 filter_mult_203_n300
*876 filter_mult_203_n299
*877 filter_mult_203_n298
*878 filter_mult_203_n297
*879 filter_mult_203_n296
*880 filter_mult_203_n295
*881 filter_mult_203_n294
*882 filter_mult_203_n293
*883 filter_mult_203_n292
*884 filter_mult_203_n291
*885 filter_mult_203_n290
*886 filter_mult_203_n289
*887 filter_mult_203_n285
*888 filter_mult_203_n284
*889 filter_mult_203_n283
*890 filter_mult_203_n282
*891 filter_mult_203_n281
*892 filter_mult_203_n261
*893 filter_mult_203_n260
*894 filter_mult_203_n259
*895 filter_mult_203_n258
*896 filter_mult_203_n257
*897 filter_mult_203_n256
*898 filter_mult_203_n255
*899 filter_mult_203_n254
*900 filter_mult_203_n253
*901 filter_mult_203_n252
*902 filter_mult_203_n251
*903 filter_mult_203_n250
*904 filter_mult_203_n249
*905 filter_mult_203_n248
*906 filter_mult_203_n247
*907 filter_mult_203_n246
*908 filter_mult_203_n245
*909 filter_mult_203_n244
*910 filter_mult_203_n243
*911 filter_mult_203_n242
*912 filter_mult_203_n241
*913 filter_mult_203_n240
*914 filter_mult_203_n239
*915 filter_mult_203_n238
*916 filter_mult_203_n237
*917 filter_mult_203_n236
*918 filter_mult_203_n235
*919 filter_mult_203_n234
*920 filter_mult_203_n233
*921 filter_mult_203_n232
*922 filter_mult_203_n231
*923 filter_mult_203_n230
*924 filter_mult_203_n229
*925 filter_mult_203_n228
*926 filter_mult_203_n227
*927 filter_mult_203_n226
*928 filter_mult_203_n225
*929 filter_mult_203_n224
*930 filter_mult_203_n223
*931 filter_mult_203_n222
*932 filter_mult_203_n221
*933 filter_mult_203_n220
*934 filter_mult_203_n219
*935 filter_mult_203_n218
*936 filter_mult_203_n217
*937 filter_mult_203_n216
*938 filter_mult_203_n215
*939 filter_mult_203_n214
*940 filter_mult_203_n213
*941 filter_mult_203_n212
*942 filter_mult_203_n211
*943 filter_mult_203_n210
*944 filter_mult_203_n209
*945 filter_mult_203_n208
*946 filter_mult_203_n207
*947 filter_mult_203_n206
*948 filter_mult_203_n205
*949 filter_mult_203_n204
*950 filter_mult_203_n203
*951 filter_mult_203_n202
*952 filter_mult_203_n201
*953 filter_mult_203_n200
*954 filter_mult_203_n199
*955 filter_mult_203_n198
*956 filter_mult_203_n197
*957 filter_mult_203_n196
*958 filter_mult_203_n195
*959 filter_mult_203_n194
*960 filter_mult_203_n193
*961 filter_mult_203_n192
*962 filter_mult_203_n191
*963 filter_mult_203_n190
*964 filter_mult_203_n189
*965 filter_mult_203_n188
*966 filter_mult_203_n187
*967 filter_mult_203_n186
*968 filter_mult_203_n185
*969 filter_mult_203_n184
*970 filter_mult_203_n183
*971 filter_mult_203_n182
*972 filter_mult_203_n181
*973 filter_mult_203_n180
*974 filter_mult_203_n179
*975 filter_mult_203_n178
*976 filter_mult_203_n177
*977 filter_mult_203_n176
*978 filter_mult_203_n175
*979 filter_mult_203_n174
*980 filter_mult_203_n173
*981 filter_mult_203_n172
*982 filter_mult_203_n171
*983 filter_mult_203_n170
*984 filter_mult_203_n169
*985 filter_mult_203_n168
*986 filter_mult_203_n167
*987 filter_mult_203_n166
*988 filter_mult_203_n165
*989 filter_mult_203_n164
*990 filter_mult_203_n163
*991 filter_mult_203_n162
*992 filter_mult_203_n161
*993 filter_mult_203_n160
*994 filter_mult_203_n159
*995 filter_mult_203_n158
*996 filter_mult_203_n157
*997 filter_mult_203_n156
*998 filter_mult_203_n155
*999 filter_mult_203_n154
*1000 filter_mult_203_n153
*1001 filter_mult_203_n152
*1002 filter_mult_203_n151
*1003 filter_mult_203_n150
*1004 filter_mult_203_n149
*1005 filter_mult_203_n148
*1006 filter_mult_203_n147
*1007 filter_mult_203_n146
*1008 filter_mult_203_n145
*1009 filter_mult_203_n144
*1010 filter_mult_203_n143
*1011 filter_mult_203_n142
*1012 filter_mult_203_n140
*1013 filter_mult_203_n139
*1014 filter_mult_203_n138
*1015 filter_mult_203_n137
*1016 filter_mult_203_n136
*1017 filter_mult_203_n135
*1018 filter_mult_203_n134
*1019 filter_mult_203_n133
*1020 filter_mult_203_n132
*1021 filter_mult_203_n131
*1022 filter_mult_203_n130
*1023 filter_mult_203_n129
*1024 filter_mult_203_n128
*1025 filter_mult_203_n127
*1026 filter_mult_203_n126
*1027 filter_mult_203_n125
*1028 filter_mult_203_n124
*1029 filter_mult_203_n123
*1030 filter_mult_203_n122
*1031 filter_mult_203_n121
*1032 filter_mult_203_n120
*1033 filter_mult_203_n118
*1034 filter_mult_203_n117
*1035 filter_mult_203_n116
*1036 filter_mult_203_n115
*1037 filter_mult_203_n114
*1038 filter_mult_203_n113
*1039 filter_mult_203_n112
*1040 filter_mult_203_n111
*1041 filter_mult_203_n110
*1042 filter_mult_203_n109
*1043 filter_mult_203_n108
*1044 filter_mult_203_n107
*1045 filter_mult_203_n106
*1046 filter_mult_203_n105
*1047 filter_mult_203_n104
*1048 filter_mult_203_n103
*1049 filter_mult_203_n102
*1050 filter_mult_203_n100
*1051 filter_mult_203_n99
*1052 filter_mult_203_n98
*1053 filter_mult_203_n97
*1054 filter_mult_203_n96
*1055 filter_mult_203_n95
*1056 filter_mult_203_n94
*1057 filter_mult_203_n93
*1058 filter_mult_203_n92
*1059 filter_mult_203_n91
*1060 filter_mult_203_n90
*1061 filter_mult_203_n89
*1062 filter_mult_203_n88
*1063 filter_mult_203_n86
*1064 filter_mult_203_n85
*1065 filter_mult_203_n84
*1066 filter_mult_203_n83
*1067 filter_mult_203_n82
*1068 filter_mult_203_n81
*1069 filter_mult_203_n80
*1070 filter_mult_203_n79
*1071 filter_mult_203_n78
*1072 filter_mult_203_n77
*1073 filter_mult_203_n75
*1074 filter_mult_203_n74
*1075 filter_mult_203_n61
*1076 filter_mult_203_n60
*1077 filter_mult_203_n59
*1078 filter_mult_203_n58
*1079 filter_mult_203_n57
*1080 filter_mult_203_n56
*1081 filter_mult_203_n55
*1082 filter_mult_203_n54
*1083 filter_mult_203_n53
*1084 filter_mult_203_n52
*1085 filter_mult_203_n51
*1086 filter_mult_203_n50
*1087 filter_mult_203_n49
*1088 filter_mult_203_n48
*1089 filter_mult_203_n47
*1090 filter_mult_203_n46
*1091 filter_mult_129_n820
*1092 filter_mult_129_n819
*1093 filter_mult_129_n818
*1094 filter_mult_129_n817
*1095 filter_mult_129_n816
*1096 filter_mult_129_n811
*1097 filter_mult_129_n810
*1098 filter_mult_129_n809
*1099 filter_mult_129_n808
*1100 filter_mult_129_n807
*1101 filter_mult_129_n806
*1102 filter_mult_129_n805
*1103 filter_mult_129_n804
*1104 filter_mult_129_n803
*1105 filter_mult_129_n802
*1106 filter_mult_129_n801
*1107 filter_mult_129_n800
*1108 filter_mult_129_n799
*1109 filter_mult_129_n798
*1110 filter_mult_129_n797
*1111 filter_mult_129_n796
*1112 filter_mult_129_n795
*1113 filter_mult_129_n794
*1114 filter_mult_129_n793
*1115 filter_mult_129_n792
*1116 filter_mult_129_n791
*1117 filter_mult_129_n790
*1118 filter_mult_129_n789
*1119 filter_mult_129_n788
*1120 filter_mult_129_n787
*1121 filter_mult_129_n786
*1122 filter_mult_129_n785
*1123 filter_mult_129_n784
*1124 filter_mult_129_n783
*1125 filter_mult_129_n782
*1126 filter_mult_129_n781
*1127 filter_mult_129_n780
*1128 filter_mult_129_n779
*1129 filter_mult_129_n778
*1130 filter_mult_129_n777
*1131 filter_mult_129_n776
*1132 filter_mult_129_n775
*1133 filter_mult_129_n774
*1134 filter_mult_129_n773
*1135 filter_mult_129_n772
*1136 filter_mult_129_n771
*1137 filter_mult_129_n770
*1138 filter_mult_129_n769
*1139 filter_mult_129_n768
*1140 filter_mult_129_n767
*1141 filter_mult_129_n766
*1142 filter_mult_129_n765
*1143 filter_mult_129_n764
*1144 filter_mult_129_n763
*1145 filter_mult_129_n762
*1146 filter_mult_129_n761
*1147 filter_mult_129_n760
*1148 filter_mult_129_n759
*1149 filter_mult_129_n758
*1150 filter_mult_129_n757
*1151 filter_mult_129_n756
*1152 filter_mult_129_n755
*1153 filter_mult_129_n754
*1154 filter_mult_129_n753
*1155 filter_mult_129_n752
*1156 filter_mult_129_n751
*1157 filter_mult_129_n750