*SPEF "IEEE 1481-1998"
*DESIGN "IIR_filter_optimized"
*DATE "Mon Nov 18 13:38:29 2019"
*VENDOR "Cadence Design Systems, Inc."
*PROGRAM "Innovus"
*VERSION "17.11-s080_1"
*DESIGN_FLOW "COUPLING C" "PIN_CAP NONE" "NAME_SCOPE LOCAL"
*DIVIDER /
*DELIMITER :
*BUS_DELIMITER []
*T_UNIT 1 NS
*C_UNIT 1 PF
*R_UNIT 1 OHM
*L_UNIT 1 HENRY

// MMMC spef file for corner 'my_rc'

*NAME_MAP

*1 DIN[11]
*2 DIN[10]
*3 DIN[9]
*4 DIN[8]
*5 DIN[7]
*6 DIN[6]
*7 DIN[5]
*8 DIN[4]
*9 DIN[3]
*10 DIN[2]
*11 DIN[1]
*12 DIN[0]
*13 CLK
*14 RST_n
*15 VIN
*16 DOUT[11]
*17 DOUT[10]
*18 DOUT[9]
*19 DOUT[8]
*20 DOUT[7]
*21 DOUT[6]
*22 DOUT[5]
*23 DOUT[4]
*24 DOUT[3]
*25 DOUT[2]
*26 DOUT[1]
*27 DOUT[0]
*28 VOUT
*29 FE_OFN10_filter_mult_174_n727
*30 FE_OFN9_filter_mult_174_n665
*31 FE_OFN8_filter_mult_129_n672
*32 FE_OFN7_filter_mult_126_n672
*33 FE_OFN6_filter_mult_185_n727
*34 FE_OFN5_filter_mult_203_n725
*35 FE_OFN4_filter_mult_203_n745
*36 FE_OFN3_filter_s_A1_reg_delay3_12
*37 FE_OFN2_filter_s_A1_reg_delay1_12
*38 FE_OFN1_filter_s_A1_reg_delay2_12
*39 FE_OFN0_filter_s_A1_reg_12
*40 FE_DBTN21_RST_n
*41 FE_DBTN20_filter_s_A1_reg_delay2_0
*42 FE_DBTN19_filter_s_A1_reg_delay2_1
*43 FE_DBTN18_filter_s_A1_reg_delay2_3
*44 FE_DBTN17_filter_s_A1_reg_delay2_5
*45 FE_DBTN16_filter_s_A1_reg_delay2_7
*46 FE_DBTN15_filter_s_A1_reg_delay2_9
*47 FE_DBTN14_filter_s_A1_reg_delay2_11
*48 FE_DBTN13_filter_s_A1_reg_delay1_0
*49 FE_DBTN12_filter_s_A1_reg_delay1_1
*50 FE_DBTN11_filter_s_A1_reg_delay1_3
*51 FE_DBTN10_filter_s_A1_reg_delay1_5
*52 FE_DBTN9_filter_s_A1_reg_delay1_7
*53 FE_DBTN8_filter_s_A1_reg_delay1_9
*54 FE_DBTN7_filter_s_A1_reg_delay1_11
*55 FE_DBTN6_filter_s_A1_reg_0
*56 FE_DBTN5_filter_s_A1_reg_1
*57 FE_DBTN4_filter_s_A1_reg_3
*58 FE_DBTN3_filter_s_A1_reg_5
*59 FE_DBTN2_filter_s_A1_reg_7
*60 FE_DBTN1_filter_s_A1_reg_9
*61 FE_DBTN0_filter_s_A1_reg_11
*62 filter_s_B2_0_
*63 filter_s_B2_10_
*64 filter_s_B2_11_
*65 filter_s_B2_12_
*66 filter_s_B2_13_
*67 filter_s_B2_14_
*68 filter_s_B2_15_
*69 filter_s_B2_16_
*70 filter_s_B2_1_
*71 filter_s_B2_2_
*72 filter_s_B2_3_
*73 filter_s_B2_4_
*74 filter_s_B2_5_
*75 filter_s_B2_6_
*76 filter_s_B2_7_
*77 filter_s_B2_8_
*78 filter_s_B2_9_
*79 filter_s_B3_0_
*80 filter_s_B3_10_
*81 filter_s_B3_11_
*82 filter_s_B3_12_
*83 filter_s_B3_13_
*84 filter_s_B3_14_
*85 filter_s_B3_15_
*86 filter_s_B3_16_
*87 filter_s_B3_1_
*88 filter_s_B3_2_
*89 filter_s_B3_3_
*90 filter_s_B3_4_
*91 filter_s_B3_5_
*92 filter_s_B3_6_
*93 filter_s_B3_7_
*94 filter_s_B3_8_
*95 filter_s_B3_9_
*96 filter_s_A2_10_
*97 filter_s_A2_11_
*98 filter_s_A2_12_
*99 filter_s_A2_13_
*100 filter_s_A2_14_
*101 filter_s_A2_15_
*102 filter_s_A2_16_
*103 filter_s_A2_5_
*104 filter_s_A2_6_
*105 filter_s_A2_7_
*106 filter_s_A2_8_
*107 filter_s_A2_9_
*108 filter_REG_CTRL_3_OUT
*109 filter_REG_CTRL_2_OUT
*110 filter_REG_CTRL_1_OUT
*111 filter_Reg_in_n12
*112 filter_Reg_in_n11
*113 filter_Reg_in_n10
*114 filter_Reg_in_n9
*115 filter_Reg_in_n8
*116 filter_Reg_in_n7
*117 filter_Reg_in_n6
*118 filter_Reg_in_n5
*119 filter_Reg_in_n4
*120 filter_Reg_in_n3
*121 filter_Reg_in_n2
*122 filter_Reg_in_n1
*123 filter_Reg_in_n27
*124 filter_Reg_in_n26
*125 filter_Reg_in_n25
*126 filter_Reg_in_n24
*127 filter_Reg_in_n23
*128 filter_Reg_in_n22
*129 filter_Reg_in_n21
*130 filter_Reg_in_n20
*131 filter_Reg_in_n19
*132 filter_Reg_in_n18
*133 filter_Reg_in_n17
*134 filter_Reg_in_n16
*135 filter_Reg_in_n15
*136 filter_Reg_in_n14
*137 filter_Reg_s_A1_0_n13
*138 filter_Reg_s_A1_0_n12
*139 filter_Reg_s_A1_0_n11
*140 filter_Reg_s_A1_0_n10
*141 filter_Reg_s_A1_0_n9
*142 filter_Reg_s_A1_0_n8
*143 filter_Reg_s_A1_0_n7
*144 filter_Reg_s_A1_0_n6
*145 filter_Reg_s_A1_0_n5
*146 filter_Reg_s_A1_0_n4
*147 filter_Reg_s_A1_0_n3
*148 filter_Reg_s_A1_0_n2
*149 filter_Reg_s_A1_0_n1
*150 filter_Reg_s_A1_0_n29
*151 filter_Reg_s_A1_0_n28
*152 filter_Reg_s_A1_0_n27
*153 filter_Reg_s_A1_0_n26
*154 filter_Reg_s_A1_0_n25
*155 filter_Reg_s_A1_0_n24
*156 filter_Reg_s_A1_0_n23
*157 filter_Reg_s_A1_0_n22
*158 filter_Reg_s_A1_0_n21
*159 filter_Reg_s_A1_0_n20
*160 filter_Reg_s_A1_0_n19
*161 filter_Reg_s_A1_0_n18
*162 filter_Reg_s_A1_0_n17
*163 filter_Reg_s_A1_0_n16
*164 filter_Reg_s_A1_0_n15
*165 filter_Reg_s_A1_1_n44
*166 filter_Reg_s_A1_1_n43
*167 filter_Reg_s_A1_1_n42
*168 filter_Reg_s_A1_1_n41
*169 filter_Reg_s_A1_1_n40
*170 filter_Reg_s_A1_1_n39
*171 filter_Reg_s_A1_1_n38
*172 filter_Reg_s_A1_1_n37
*173 filter_Reg_s_A1_1_n36
*174 filter_Reg_s_A1_1_n35
*175 filter_Reg_s_A1_1_n34
*176 filter_Reg_s_A1_1_n33
*177 filter_Reg_s_A1_1_n32
*178 filter_Reg_s_A1_1_n31
*179 filter_Reg_s_A1_1_n30
*180 filter_Reg_s_A1_1_n13
*181 filter_Reg_s_A1_1_n12
*182 filter_Reg_s_A1_1_n11
*183 filter_Reg_s_A1_1_n10
*184 filter_Reg_s_A1_1_n9
*185 filter_Reg_s_A1_1_n8
*186 filter_Reg_s_A1_1_n7
*187 filter_Reg_s_A1_1_n6
*188 filter_Reg_s_A1_1_n5
*189 filter_Reg_s_A1_1_n4
*190 filter_Reg_s_A1_1_n3
*191 filter_Reg_s_A1_1_n2
*192 filter_Reg_s_A1_1_n1
*193 filter_Reg_s_A1_2_n44
*194 filter_Reg_s_A1_2_n43
*195 filter_Reg_s_A1_2_n42
*196 filter_Reg_s_A1_2_n41
*197 filter_Reg_s_A1_2_n40
*198 filter_Reg_s_A1_2_n39
*199 filter_Reg_s_A1_2_n38
*200 filter_Reg_s_A1_2_n37
*201 filter_Reg_s_A1_2_n36
*202 filter_Reg_s_A1_2_n35
*203 filter_Reg_s_A1_2_n34
*204 filter_Reg_s_A1_2_n33
*205 filter_Reg_s_A1_2_n32
*206 filter_Reg_s_A1_2_n31
*207 filter_Reg_s_A1_2_n30
*208 filter_Reg_s_A1_2_n13
*209 filter_Reg_s_A1_2_n12
*210 filter_Reg_s_A1_2_n11
*211 filter_Reg_s_A1_2_n10
*212 filter_Reg_s_A1_2_n9
*213 filter_Reg_s_A1_2_n8
*214 filter_Reg_s_A1_2_n7
*215 filter_Reg_s_A1_2_n6
*216 filter_Reg_s_A1_2_n5
*217 filter_Reg_s_A1_2_n4
*218 filter_Reg_s_A1_2_n3
*219 filter_Reg_s_A1_2_n2
*220 filter_Reg_s_A1_2_n1
*221 filter_Reg_m_A1_n17
*222 filter_Reg_m_A1_n16
*223 filter_Reg_m_A1_n15
*224 filter_Reg_m_A1_n14
*225 filter_Reg_m_A1_n13
*226 filter_Reg_m_A1_n12
*227 filter_Reg_m_A1_n11
*228 filter_Reg_m_A1_n10
*229 filter_Reg_m_A1_n9
*230 filter_Reg_m_A1_n8
*231 filter_Reg_m_A1_n7
*232 filter_Reg_m_A1_n6
*233 filter_Reg_m_A1_n5
*234 filter_Reg_m_A1_n4
*235 filter_Reg_m_A1_n3
*236 filter_Reg_m_A1_n2
*237 filter_Reg_m_A1_n1
*238 filter_Reg_m_A1_n37
*239 filter_Reg_m_A1_n36
*240 filter_Reg_m_A1_n35
*241 filter_Reg_m_A1_n34
*242 filter_Reg_m_A1_n33
*243 filter_Reg_m_A1_n32
*244 filter_Reg_m_A1_n31
*245 filter_Reg_m_A1_n30
*246 filter_Reg_m_A1_n29
*247 filter_Reg_m_A1_n28
*248 filter_Reg_m_A1_n27
*249 filter_Reg_m_A1_n26
*250 filter_Reg_m_A1_n25
*251 filter_Reg_m_A1_n24
*252 filter_Reg_m_A1_n23
*253 filter_Reg_m_A1_n22
*254 filter_Reg_m_A1_n21
*255 filter_Reg_m_A1_n20
*256 filter_Reg_m_A1_n19
*257 filter_Reg_m_A2_n56
*258 filter_Reg_m_A2_n55
*259 filter_Reg_m_A2_n54
*260 filter_Reg_m_A2_n53
*261 filter_Reg_m_A2_n52
*262 filter_Reg_m_A2_n51
*263 filter_Reg_m_A2_n50
*264 filter_Reg_m_A2_n49
*265 filter_Reg_m_A2_n48
*266 filter_Reg_m_A2_n47
*267 filter_Reg_m_A2_n46
*268 filter_Reg_m_A2_n45
*269 filter_Reg_m_A2_n44
*270 filter_Reg_m_A2_n43
*271 filter_Reg_m_A2_n42
*272 filter_Reg_m_A2_n41
*273 filter_Reg_m_A2_n40
*274 filter_Reg_m_A2_n39
*275 filter_Reg_m_A2_n38
*276 filter_Reg_m_A2_n17
*277 filter_Reg_m_A2_n16
*278 filter_Reg_m_A2_n15
*279 filter_Reg_m_A2_n14
*280 filter_Reg_m_A2_n13
*281 filter_Reg_m_A2_n12
*282 filter_Reg_m_A2_n11
*283 filter_Reg_m_A2_n10
*284 filter_Reg_m_A2_n9
*285 filter_Reg_m_A2_n8
*286 filter_Reg_m_A2_n7
*287 filter_Reg_m_A2_n6
*288 filter_Reg_m_A2_n5
*289 filter_Reg_m_A2_n4
*290 filter_Reg_m_A2_n3
*291 filter_Reg_m_A2_n2
*292 filter_Reg_m_A2_n1
*293 filter_Reg_m_B0_n56
*294 filter_Reg_m_B0_n55
*295 filter_Reg_m_B0_n54
*296 filter_Reg_m_B0_n53
*297 filter_Reg_m_B0_n52
*298 filter_Reg_m_B0_n51
*299 filter_Reg_m_B0_n50
*300 filter_Reg_m_B0_n49
*301 filter_Reg_m_B0_n48
*302 filter_Reg_m_B0_n47
*303 filter_Reg_m_B0_n46
*304 filter_Reg_m_B0_n45
*305 filter_Reg_m_B0_n44
*306 filter_Reg_m_B0_n43
*307 filter_Reg_m_B0_n42
*308 filter_Reg_m_B0_n41
*309 filter_Reg_m_B0_n40
*310 filter_Reg_m_B0_n39
*311 filter_Reg_m_B0_n38
*312 filter_Reg_m_B0_n17
*313 filter_Reg_m_B0_n16
*314 filter_Reg_m_B0_n15
*315 filter_Reg_m_B0_n14
*316 filter_Reg_m_B0_n13
*317 filter_Reg_m_B0_n12
*318 filter_Reg_m_B0_n11
*319 filter_Reg_m_B0_n10
*320 filter_Reg_m_B0_n9
*321 filter_Reg_m_B0_n8
*322 filter_Reg_m_B0_n7
*323 filter_Reg_m_B0_n6
*324 filter_Reg_m_B0_n5
*325 filter_Reg_m_B0_n4
*326 filter_Reg_m_B0_n3
*327 filter_Reg_m_B0_n2
*328 filter_Reg_m_B0_n1
*329 filter_Reg_m_B1_n56
*330 filter_Reg_m_B1_n55
*331 filter_Reg_m_B1_n54
*332 filter_Reg_m_B1_n53
*333 filter_Reg_m_B1_n52
*334 filter_Reg_m_B1_n51
*335 filter_Reg_m_B1_n50
*336 filter_Reg_m_B1_n49
*337 filter_Reg_m_B1_n48
*338 filter_Reg_m_B1_n47
*339 filter_Reg_m_B1_n46
*340 filter_Reg_m_B1_n45
*341 filter_Reg_m_B1_n44
*342 filter_Reg_m_B1_n43
*343 filter_Reg_m_B1_n42
*344 filter_Reg_m_B1_n41
*345 filter_Reg_m_B1_n40
*346 filter_Reg_m_B1_n39
*347 filter_Reg_m_B1_n38
*348 filter_Reg_m_B1_n17
*349 filter_Reg_m_B1_n16
*350 filter_Reg_m_B1_n15
*351 filter_Reg_m_B1_n14
*352 filter_Reg_m_B1_n13
*353 filter_Reg_m_B1_n12
*354 filter_Reg_m_B1_n11
*355 filter_Reg_m_B1_n10
*356 filter_Reg_m_B1_n9
*357 filter_Reg_m_B1_n8
*358 filter_Reg_m_B1_n7
*359 filter_Reg_m_B1_n6
*360 filter_Reg_m_B1_n5
*361 filter_Reg_m_B1_n4
*362 filter_Reg_m_B1_n3
*363 filter_Reg_m_B1_n2
*364 filter_Reg_m_B1_n1
*365 filter_Reg_m_B2_n56
*366 filter_Reg_m_B2_n55
*367 filter_Reg_m_B2_n54
*368 filter_Reg_m_B2_n53
*369 filter_Reg_m_B2_n52
*370 filter_Reg_m_B2_n51
*371 filter_Reg_m_B2_n50
*372 filter_Reg_m_B2_n49
*373 filter_Reg_m_B2_n48
*374 filter_Reg_m_B2_n47
*375 filter_Reg_m_B2_n46
*376 filter_Reg_m_B2_n45
*377 filter_Reg_m_B2_n44
*378 filter_Reg_m_B2_n43
*379 filter_Reg_m_B2_n42
*380 filter_Reg_m_B2_n41
*381 filter_Reg_m_B2_n40
*382 filter_Reg_m_B2_n39
*383 filter_Reg_m_B2_n38
*384 filter_Reg_m_B2_n17
*385 filter_Reg_m_B2_n16
*386 filter_Reg_m_B2_n15
*387 filter_Reg_m_B2_n14
*388 filter_Reg_m_B2_n13
*389 filter_Reg_m_B2_n12
*390 filter_Reg_m_B2_n11
*391 filter_Reg_m_B2_n10
*392 filter_Reg_m_B2_n9
*393 filter_Reg_m_B2_n8
*394 filter_Reg_m_B2_n7
*395 filter_Reg_m_B2_n6
*396 filter_Reg_m_B2_n5
*397 filter_Reg_m_B2_n4
*398 filter_Reg_m_B2_n3
*399 filter_Reg_m_B2_n2
*400 filter_Reg_m_B2_n1
*401 filter_Reg_m_B3_n56
*402 filter_Reg_m_B3_n55
*403 filter_Reg_m_B3_n54
*404 filter_Reg_m_B3_n53
*405 filter_Reg_m_B3_n52
*406 filter_Reg_m_B3_n51
*407 filter_Reg_m_B3_n50
*408 filter_Reg_m_B3_n49
*409 filter_Reg_m_B3_n48
*410 filter_Reg_m_B3_n47
*411 filter_Reg_m_B3_n46
*412 filter_Reg_m_B3_n45
*413 filter_Reg_m_B3_n44
*414 filter_Reg_m_B3_n43
*415 filter_Reg_m_B3_n42
*416 filter_Reg_m_B3_n41
*417 filter_Reg_m_B3_n40
*418 filter_Reg_m_B3_n39
*419 filter_Reg_m_B3_n38
*420 filter_Reg_m_B3_n17
*421 filter_Reg_m_B3_n16
*422 filter_Reg_m_B3_n15
*423 filter_Reg_m_B3_n14
*424 filter_Reg_m_B3_n13
*425 filter_Reg_m_B3_n12
*426 filter_Reg_m_B3_n11
*427 filter_Reg_m_B3_n10
*428 filter_Reg_m_B3_n9
*429 filter_Reg_m_B3_n8
*430 filter_Reg_m_B3_n7
*431 filter_Reg_m_B3_n6
*432 filter_Reg_m_B3_n5
*433 filter_Reg_m_B3_n4
*434 filter_Reg_m_B3_n3
*435 filter_Reg_m_B3_n2
*436 filter_Reg_m_B3_n1
*437 filter_Reg_s_A1_reg_delay3_n44
*438 filter_Reg_s_A1_reg_delay3_n43
*439 filter_Reg_s_A1_reg_delay3_n42
*440 filter_Reg_s_A1_reg_delay3_n41
*441 filter_Reg_s_A1_reg_delay3_n40
*442 filter_Reg_s_A1_reg_delay3_n39
*443 filter_Reg_s_A1_reg_delay3_n38
*444 filter_Reg_s_A1_reg_delay3_n37
*445 filter_Reg_s_A1_reg_delay3_n36
*446 filter_Reg_s_A1_reg_delay3_n35
*447 filter_Reg_s_A1_reg_delay3_n34
*448 filter_Reg_s_A1_reg_delay3_n33
*449 filter_Reg_s_A1_reg_delay3_n32
*450 filter_Reg_s_A1_reg_delay3_n31
*451 filter_Reg_s_A1_reg_delay3_n30
*452 filter_Reg_s_A1_reg_delay3_n13
*453 filter_Reg_s_A1_reg_delay3_n12
*454 filter_Reg_s_A1_reg_delay3_n11
*455 filter_Reg_s_A1_reg_delay3_n10
*456 filter_Reg_s_A1_reg_delay3_n9
*457 filter_Reg_s_A1_reg_delay3_n8
*458 filter_Reg_s_A1_reg_delay3_n7
*459 filter_Reg_s_A1_reg_delay3_n6
*460 filter_Reg_s_A1_reg_delay3_n5
*461 filter_Reg_s_A1_reg_delay3_n4
*462 filter_Reg_s_A1_reg_delay3_n3
*463 filter_Reg_s_A1_reg_delay3_n2
*464 filter_Reg_s_A1_reg_delay3_n1
*465 filter_Reg_m_B4_n56
*466 filter_Reg_m_B4_n55
*467 filter_Reg_m_B4_n54
*468 filter_Reg_m_B4_n53
*469 filter_Reg_m_B4_n52
*470 filter_Reg_m_B4_n51
*471 filter_Reg_m_B4_n50
*472 filter_Reg_m_B4_n49
*473 filter_Reg_m_B4_n48
*474 filter_Reg_m_B4_n47
*475 filter_Reg_m_B4_n46
*476 filter_Reg_m_B4_n45
*477 filter_Reg_m_B4_n44
*478 filter_Reg_m_B4_n43
*479 filter_Reg_m_B4_n42
*480 filter_Reg_m_B4_n41
*481 filter_Reg_m_B4_n40
*482 filter_Reg_m_B4_n39
*483 filter_Reg_m_B4_n38
*484 filter_Reg_m_B4_n17
*485 filter_Reg_m_B4_n16
*486 filter_Reg_m_B4_n15
*487 filter_Reg_m_B4_n14
*488 filter_Reg_m_B4_n13
*489 filter_Reg_m_B4_n12
*490 filter_Reg_m_B4_n11
*491 filter_Reg_m_B4_n10
*492 filter_Reg_m_B4_n9
*493 filter_Reg_m_B4_n8
*494 filter_Reg_m_B4_n7
*495 filter_Reg_m_B4_n6
*496 filter_Reg_m_B4_n5
*497 filter_Reg_m_B4_n4
*498 filter_Reg_m_B4_n3
*499 filter_Reg_m_B4_n2
*500 filter_Reg_m_B4_n1
*501 filter_Reg_s_B1_n56
*502 filter_Reg_s_B1_n55
*503 filter_Reg_s_B1_n54
*504 filter_Reg_s_B1_n53
*505 filter_Reg_s_B1_n52
*506 filter_Reg_s_B1_n51
*507 filter_Reg_s_B1_n50
*508 filter_Reg_s_B1_n49
*509 filter_Reg_s_B1_n48
*510 filter_Reg_s_B1_n47
*511 filter_Reg_s_B1_n46
*512 filter_Reg_s_B1_n45
*513 filter_Reg_s_B1_n44
*514 filter_Reg_s_B1_n43
*515 filter_Reg_s_B1_n42
*516 filter_Reg_s_B1_n41
*517 filter_Reg_s_B1_n40
*518 filter_Reg_s_B1_n39
*519 filter_Reg_s_B1_n38
*520 filter_Reg_s_B1_n17
*521 filter_Reg_s_B1_n16
*522 filter_Reg_s_B1_n15
*523 filter_Reg_s_B1_n14
*524 filter_Reg_s_B1_n13
*525 filter_Reg_s_B1_n12
*526 filter_Reg_s_B1_n11
*527 filter_Reg_s_B1_n10
*528 filter_Reg_s_B1_n9
*529 filter_Reg_s_B1_n8
*530 filter_Reg_s_B1_n7
*531 filter_Reg_s_B1_n6
*532 filter_Reg_s_B1_n5
*533 filter_Reg_s_B1_n4
*534 filter_Reg_s_B1_n3
*535 filter_Reg_s_B1_n2
*536 filter_Reg_s_B1_n1
*537 filter_Reg_out_n41
*538 filter_Reg_out_n40
*539 filter_Reg_out_n39
*540 filter_Reg_out_n38
*541 filter_Reg_out_n37
*542 filter_Reg_out_n36
*543 filter_Reg_out_n35
*544 filter_Reg_out_n34
*545 filter_Reg_out_n33
*546 filter_Reg_out_n32
*547 filter_Reg_out_n31
*548 filter_Reg_out_n30
*549 filter_Reg_out_n29
*550 filter_Reg_out_n28
*551 filter_Reg_out_n12
*552 filter_Reg_out_n11
*553 filter_Reg_out_n10
*554 filter_Reg_out_n9
*555 filter_Reg_out_n8
*556 filter_Reg_out_n7
*557 filter_Reg_out_n6
*558 filter_Reg_out_n5
*559 filter_Reg_out_n4
*560 filter_Reg_out_n3
*561 filter_Reg_out_n2
*562 filter_Reg_out_n1
*563 filter_Reg_ctrl_1_n4
*564 filter_Reg_ctrl_1_n3
*565 filter_Reg_ctrl_2_n6
*566 filter_Reg_ctrl_2_n5
*567 filter_Reg_ctrl_3_n6
*568 filter_Reg_ctrl_3_n5
*569 filter_Reg_ctrl_3_n1
*570 filter_Reg_ctrl_VOUT_n6
*571 filter_Reg_ctrl_VOUT_n5
*572 filter_add_228_n13
*573 filter_add_228_n12
*574 filter_add_228_n11
*575 filter_add_228_n10
*576 filter_add_228_n9
*577 filter_add_228_n8
*578 filter_add_228_n7
*579 filter_add_228_n6
*580 filter_add_228_n5
*581 filter_add_228_n4
*582 filter_add_228_n3
*583 filter_add_228_n2
*584 filter_add_228_n1
*585 filter_add_124_n13
*586 filter_add_124_n12
*587 filter_add_124_n11
*588 filter_add_124_n10
*589 filter_add_124_n9
*590 filter_add_124_n8
*591 filter_add_124_n7
*592 filter_add_124_n6
*593 filter_add_124_n5
*594 filter_add_124_n4
*595 filter_add_124_n3
*596 filter_add_124_n2
*597 filter_add_124_n1
*598 filter_add_99_n2
*599 filter_add_1_root_add_0_root_add_219_n1
*600 filter_add_2_root_add_0_root_add_219_n1
*601 filter_add_0_root_add_0_root_add_219_n2
*602 filter_mult_203_n820
*603 filter_mult_203_n819
*604 filter_mult_203_n818
*605 filter_mult_203_n817
*606 filter_mult_203_n816
*607 filter_mult_203_n815
*608 filter_mult_203_n814
*609 filter_mult_203_n813
*610 filter_mult_203_n809
*611 filter_mult_203_n807
*612 filter_mult_203_n806
*613 filter_mult_203_n805
*614 filter_mult_203_n804
*615 filter_mult_203_n803
*616 filter_mult_203_n802
*617 filter_mult_203_n801
*618 filter_mult_203_n800
*619 filter_mult_203_n799
*620 filter_mult_203_n798
*621 filter_mult_203_n797
*622 filter_mult_203_n796
*623 filter_mult_203_n795
*624 filter_mult_203_n794
*625 filter_mult_203_n793
*626 filter_mult_203_n792
*627 filter_mult_203_n791
*628 filter_mult_203_n790
*629 filter_mult_203_n789
*630 filter_mult_203_n788
*631 filter_mult_203_n787
*632 filter_mult_203_n786
*633 filter_mult_203_n785
*634 filter_mult_203_n784
*635 filter_mult_203_n783
*636 filter_mult_203_n782
*637 filter_mult_203_n781
*638 filter_mult_203_n780
*639 filter_mult_203_n779
*640 filter_mult_203_n778
*641 filter_mult_203_n777
*642 filter_mult_203_n776
*643 filter_mult_203_n775
*644 filter_mult_203_n774
*645 filter_mult_203_n773
*646 filter_mult_203_n772
*647 filter_mult_203_n771
*648 filter_mult_203_n770
*649 filter_mult_203_n769
*650 filter_mult_203_n768
*651 filter_mult_203_n767
*652 filter_mult_203_n766
*653 filter_mult_203_n765
*654 filter_mult_203_n764
*655 filter_mult_203_n763
*656 filter_mult_203_n762
*657 filter_mult_203_n761
*658 filter_mult_203_n760
*659 filter_mult_203_n759
*660 filter_mult_203_n758
*661 filter_mult_203_n757
*662 filter_mult_203_n756
*663 filter_mult_203_n755
*664 filter_mult_203_n754
*665 filter_mult_203_n753
*666 filter_mult_203_n752
*667 filter_mult_203_n751
*668 filter_mult_203_n750
*669 filter_mult_203_n749
*670 filter_mult_203_n748
*671 filter_mult_203_n747
*672 filter_mult_203_n746
*673 filter_mult_203_n745
*674 filter_mult_203_n744
*675 filter_mult_203_n743
*676 filter_mult_203_n742
*677 filter_mult_203_n741
*678 filter_mult_203_n740
*679 filter_mult_203_n739
*680 filter_mult_203_n738
*681 filter_mult_203_n737
*682 filter_mult_203_n736
*683 filter_mult_203_n735
*684 filter_mult_203_n734
*685 filter_mult_203_n733
*686 filter_mult_203_n732
*687 filter_mult_203_n731
*688 filter_mult_203_n730
*689 filter_mult_203_n729
*690 filter_mult_203_n728
*691 filter_mult_203_n727
*692 filter_mult_203_n726
*693 filter_mult_203_n725
*694 filter_mult_203_n723
*695 filter_mult_203_n722
*696 filter_mult_203_n721
*697 filter_mult_203_n720
*698 filter_mult_203_n719
*699 filter_mult_203_n718
*700 filter_mult_203_n717
*701 filter_mult_203_n716
*702 filter_mult_203_n715
*703 filter_mult_203_n714
*704 filter_mult_203_n713
*705 filter_mult_203_n712
*706 filter_mult_203_n711
*707 filter_mult_203_n710
*708 filter_mult_203_n709
*709 filter_mult_203_n708
*710 filter_mult_203_n707
*711 filter_mult_203_n706
*712 filter_mult_203_n704
*713 filter_mult_203_n703
*714 filter_mult_203_n702
*715 filter_mult_203_n701
*716 filter_mult_203_n700
*717 filter_mult_203_n699
*718 filter_mult_203_n698
*719 filter_mult_203_n697
*720 filter_mult_203_n696
*721 filter_mult_203_n695
*722 filter_mult_203_n694
*723 filter_mult_203_n693
*724 filter_mult_203_n692
*725 filter_mult_203_n691
*726 filter_mult_203_n690
*727 filter_mult_203_n688
*728 filter_mult_203_n687
*729 filter_mult_203_n686
*730 filter_mult_203_n685
*731 filter_mult_203_n683
*732 filter_mult_203_n681
*733 filter_mult_203_n680
*734 filter_mult_203_n679
*735 filter_mult_203_n678
*736 filter_mult_203_n677
*737 filter_mult_203_n676
*738 filter_mult_203_n675
*739 filter_mult_203_n674
*740 filter_mult_203_n673
*741 filter_mult_203_n672
*742 filter_mult_203_n671
*743 filter_mult_203_n670
*744 filter_mult_203_n669
*745 filter_mult_203_n668
*746 filter_mult_203_n667
*747 filter_mult_203_n666
*748 filter_mult_203_n665
*749 filter_mult_203_n664
*750 filter_mult_203_n663
*751 filter_mult_203_n662
*752 filter_mult_203_n661
*753 filter_mult_203_n660
*754 filter_mult_203_n659
*755 filter_mult_203_n658
*756 filter_mult_203_n657
*757 filter_mult_203_n656
*758 filter_mult_203_n655
*759 filter_mult_203_n654
*760 filter_mult_203_n653
*761 filter_mult_203_n652
*762 filter_mult_203_n651
*763 filter_mult_203_n650
*764 filter_mult_203_n649
*765 filter_mult_203_n648
*766 filter_mult_203_n647
*767 filter_mult_203_n646
*768 filter_mult_203_n645
*769 filter_mult_203_n644
*770 filter_mult_203_n643
*771 filter_mult_203_n642
*772 filter_mult_203_n641
*773 filter_mult_203_n640
*774 filter_mult_203_n639
*775 filter_mult_203_n638
*776 filter_mult_203_n637
*777 filter_mult_203_n636
*778 filter_mult_203_n635
*779 filter_mult_203_n634
*780 filter_mult_203_n633
*781 filter_mult_203_n632
*782 filter_mult_203_n631
*783 filter_mult_203_n630
*784 filter_mult_203_n629
*785 filter_mult_203_n628
*786 filter_mult_203_n627
*787 filter_mult_203_n403
*788 filter_mult_203_n402
*789 filter_mult_203_n401
*790 filter_mult_203_n400
*791 filter_mult_203_n399
*792 filter_mult_203_n398
*793 filter_mult_203_n397
*794 filter_mult_203_n396
*795 filter_mult_203_n395
*796 filter_mult_203_n394
*797 filter_mult_203_n393
*798 filter_mult_203_n392
*799 filter_mult_203_n391
*800 filter_mult_203_n390
*801 filter_mult_203_n387
*802 filter_mult_203_n386
*803 filter_mult_203_n385
*804 filter_mult_203_n384
*805 filter_mult_203_n383
*806 filter_mult_203_n382
*807 filter_mult_203_n381
*808 filter_mult_203_n380
*809 filter_mult_203_n379
*810 filter_mult_203_n378
*811 filter_mult_203_n377
*812 filter_mult_203_n376
*813 filter_mult_203_n375
*814 filter_mult_203_n374
*815 filter_mult_203_n373
*816 filter_mult_203_n372
*817 filter_mult_203_n371
*818 filter_mult_203_n370
*819 filter_mult_203_n369
*820 filter_mult_203_n368
*821 filter_mult_203_n367
*822 filter_mult_203_n366
*823 filter_mult_203_n365
*824 filter_mult_203_n364
*825 filter_mult_203_n363
*826 filter_mult_203_n362
*827 filter_mult_203_n361
*828 filter_mult_203_n360
*829 filter_mult_203_n359
*830 filter_mult_203_n357
*831 filter_mult_203_n356
*832 filter_mult_203_n354
*833 filter_mult_203_n353
*834 filter_mult_203_n352
*835 filter_mult_203_n351
*836 filter_mult_203_n350
*837 filter_mult_203_n349
*838 filter_mult_203_n348
*839 filter_mult_203_n347
*840 filter_mult_203_n346
*841 filter_mult_203_n345
*842 filter_mult_203_n344
*843 filter_mult_203_n343
*844 filter_mult_203_n342
*845 filter_mult_203_n341
*846 filter_mult_203_n340
*847 filter_mult_203_n339
*848 filter_mult_203_n337
*849 filter_mult_203_n336
*850 filter_mult_203_n335
*851 filter_mult_203_n334
*852 filter_mult_203_n333
*853 filter_mult_203_n332
*854 filter_mult_203_n331
*855 filter_mult_203_n330
*856 filter_mult_203_n329
*857 filter_mult_203_n328
*858 filter_mult_203_n327
*859 filter_mult_203_n326
*860 filter_mult_203_n325
*861 filter_mult_203_n324
*862 filter_mult_203_n323
*863 filter_mult_203_n322
*864 filter_mult_203_n320
*865 filter_mult_203_n319
*866 filter_mult_203_n318
*867 filter_mult_203_n317
*868 filter_mult_203_n316
*869 filter_mult_203_n315
*870 filter_mult_203_n314
*871 filter_mult_203_n312
*872 filter_mult_203_n311
*873 filter_mult_203_n310
*874 filter_mult_203_n309
*875 filter_mult_203_n308
*876 filter_mult_203_n307
*877 filter_mult_203_n306
*878 filter_mult_203_n305
*879 filter_mult_203_n303
*880 filter_mult_203_n302
*881 filter_mult_203_n301
*882 filter_mult_203_n300
*883 filter_mult_203_n299
*884 filter_mult_203_n298
*885 filter_mult_203_n297
*886 filter_mult_203_n296
*887 filter_mult_203_n295
*888 filter_mult_203_n294
*889 filter_mult_203_n293
*890 filter_mult_203_n292
*891 filter_mult_203_n291
*892 filter_mult_203_n290
*893 filter_mult_203_n289
*894 filter_mult_203_n285
*895 filter_mult_203_n284
*896 filter_mult_203_n283
*897 filter_mult_203_n282
*898 filter_mult_203_n281
*899 filter_mult_203_n261
*900 filter_mult_203_n260
*901 filter_mult_203_n259
*902 filter_mult_203_n258
*903 filter_mult_203_n257
*904 filter_mult_203_n256
*905 filter_mult_203_n255
*906 filter_mult_203_n254
*907 filter_mult_203_n253
*908 filter_mult_203_n252
*909 filter_mult_203_n251
*910 filter_mult_203_n250
*911 filter_mult_203_n249
*912 filter_mult_203_n248
*913 filter_mult_203_n247
*914 filter_mult_203_n246
*915 filter_mult_203_n245
*916 filter_mult_203_n244
*917 filter_mult_203_n243
*918 filter_mult_203_n242
*919 filter_mult_203_n241
*920 filter_mult_203_n240
*921 filter_mult_203_n239
*922 filter_mult_203_n238
*923 filter_mult_203_n237
*924 filter_mult_203_n236
*925 filter_mult_203_n235
*926 filter_mult_203_n234
*927 filter_mult_203_n233
*928 filter_mult_203_n232
*929 filter_mult_203_n231
*930 filter_mult_203_n230
*931 filter_mult_203_n229
*932 filter_mult_203_n228
*933 filter_mult_203_n227
*934 filter_mult_203_n226
*935 filter_mult_203_n225
*936 filter_mult_203_n224
*937 filter_mult_203_n223
*938 filter_mult_203_n222
*939 filter_mult_203_n221
*940 filter_mult_203_n220
*941 filter_mult_203_n219
*942 filter_mult_203_n218
*943 filter_mult_203_n217
*944 filter_mult_203_n216
*945 filter_mult_203_n215
*946 filter_mult_203_n214
*947 filter_mult_203_n213
*948 filter_mult_203_n212
*949 filter_mult_203_n211
*950 filter_mult_203_n210
*951 filter_mult_203_n209
*952 filter_mult_203_n208
*953 filter_mult_203_n207
*954 filter_mult_203_n206
*955 filter_mult_203_n205
*956 filter_mult_203_n204
*957 filter_mult_203_n203
*958 filter_mult_203_n202
*959 filter_mult_203_n201
*960 filter_mult_203_n200
*961 filter_mult_203_n199
*962 filter_mult_203_n198
*963 filter_mult_203_n197
*964 filter_mult_203_n196
*965 filter_mult_203_n195
*966 filter_mult_203_n194
*967 filter_mult_203_n193
*968 filter_mult_203_n192
*969 filter_mult_203_n191
*970 filter_mult_203_n190
*971 filter_mult_203_n189
*972 filter_mult_203_n188
*973 filter_mult_203_n187
*974 filter_mult_203_n186
*975 filter_mult_203_n185
*976 filter_mult_203_n184
*977 filter_mult_203_n183
*978 filter_mult_203_n182
*979 filter_mult_203_n181
*980 filter_mult_203_n180
*981 filter_mult_203_n179
*982 filter_mult_203_n178
*983 filter_mult_203_n177
*984 filter_mult_203_n176
*985 filter_mult_203_n175
*986 filter_mult_203_n174
*987 filter_mult_203_n173
*988 filter_mult_203_n172
*989 filter_mult_203_n171
*990 filter_mult_203_n170
*991 filter_mult_203_n169
*992 filter_mult_203_n168
*993 filter_mult_203_n167
*994 filter_mult_203_n166
*995 filter_mult_203_n165
*996 filter_mult_203_n164
*997 filter_mult_203_n163
*998 filter_mult_203_n162
*999 filter_mult_203_n161
*1000 filter_mult_203_n160
*1001 filter_mult_203_n159
*1002 filter_mult_203_n158
*1003 filter_mult_203_n157
*1004 filter_mult_203_n156
*1005 filter_mult_203_n155
*1006 filter_mult_203_n154
*1007 filter_mult_203_n153
*1008 filter_mult_203_n152
*1009 filter_mult_203_n151
*1010 filter_mult_203_n150
*1011 filter_mult_203_n149
*1012 filter_mult_203_n148
*1013 filter_mult_203_n147
*1014 filter_mult_203_n146
*1015 filter_mult_203_n145
*1016 filter_mult_203_n144
*1017 filter_mult_203_n143
*1018 filter_mult_203_n142
*1019 filter_mult_203_n140
*1020 filter_mult_203_n139
*1021 filter_mult_203_n138
*1022 filter_mult_203_n137
*1023 filter_mult_203_n136
*1024 filter_mult_203_n135
*1025 filter_mult_203_n134
*1026 filter_mult_203_n133
*1027 filter_mult_203_n132
*1028 filter_mult_203_n131
*1029 filter_mult_203_n130
*1030 filter_mult_203_n129
*1031 filter_mult_203_n128
*1032 filter_mult_203_n127
*1033 filter_mult_203_n126
*1034 filter_mult_203_n125
*1035 filter_mult_203_n124
*1036 filter_mult_203_n123
*1037 filter_mult_203_n122
*1038 filter_mult_203_n121
*1039 filter_mult_203_n120
*1040 filter_mult_203_n118
*1041 filter_mult_203_n117
*1042 filter_mult_203_n116
*1043 filter_mult_203_n115
*1044 filter_mult_203_n114
*1045 filter_mult_203_n113
*1046 filter_mult_203_n112
*1047 filter_mult_203_n111
*1048 filter_mult_203_n110
*1049 filter_mult_203_n109
*1050 filter_mult_203_n108
*1051 filter_mult_203_n107
*1052 filter_mult_203_n106
*1053 filter_mult_203_n105
*1054 filter_mult_203_n104
*1055 filter_mult_203_n103
*1056 filter_mult_203_n102
*1057 filter_mult_203_n100
*1058 filter_mult_203_n99
*1059 filter_mult_203_n98
*1060 filter_mult_203_n97
*1061 filter_mult_203_n96
*1062 filter_mult_203_n95
*1063 filter_mult_203_n94
*1064 filter_mult_203_n93
*1065 filter_mult_203_n92
*1066 filter_mult_203_n91
*1067 filter_mult_203_n90
*1068 filter_mult_203_n89
*1069 filter_mult_203_n88
*1070 filter_mult_203_n86
*1071 filter_mult_203_n85
*1072 filter_mult_203_n84
*1073 filter_mult_203_n83
*1074 filter_mult_203_n82
*1075 filter_mult_203_n81
*1076 filter_mult_203_n80
*1077 filter_mult_203_n79
*1078 filter_mult_203_n78
*1079 filter_mult_203_n77
*1080 filter_mult_203_n75
*1081 filter_mult_203_n74
*1082 filter_mult_203_n61
*1083 filter_mult_203_n60
*1084 filter_mult_203_n59
*1085 filter_mult_203_n58
*1086 filter_mult_203_n57
*1087 filter_mult_203_n56
*1088 filter_mult_203_n55
*1089 filter_mult_203_n54
*1090 filter_mult_203_n53
*1091 filter_mult_203_n52
*1092 filter_mult_203_n51
*1093 filter_mult_203_n50
*1094 filter_mult_203_n49
*1095 filter_mult_203_n48
*1096 filter_mult_203_n47
*1097 filter_mult_203_n46
*1098 filter_mult_129_n820
*1099 filter_mult_129_n819
*1100 filter_mult_129_n818
*1101 filter_mult_129_n817
*1102 filter_mult_129_n816
*1103 filter_mult_129_n811
*1104 filter_mult_129_n810
*1105 filter_mult_129_n809
*1106 filter_mult_129_n808
*1107 filter_mult_129_n807
*1108 filter_mult_129_n806
*1109 filter_mult_129_n805
*1110 filter_mult_129_n804
*1111 filter_mult_129_n803
*1112 filter_mult_129_n802
*1113 filter_mult_129_n801
*1114 filter_mult_129_n800
*1115 filter_mult_129_n799
*1116 filter_mult_129_n798
*1117 filter_mult_129_n797
*1118 filter_mult_129_n796
*1119 filter_mult_129_n795
*1120 filter_mult_129_n794
*1121 filter_mult_129_n793
*1122 filter_mult_129_n792
*1123 filter_mult_129_n791
*1124 filter_mult_129_n790
*1125 filter_mult_129_n789
*1126 filter_mult_129_n788
*1127 filter_mult_129_n787
*1128 filter_mult_129_n786
*1129 filter_mult_129_n785
*1130 filter_mult_129_n784
*1131 filter_mult_129_n783
*1132 filter_mult_129_n782
*1133 filter_mult_129_n781
*1134 filter_mult_129_n780
*1135 filter_mult_129_n779
*1136 filter_mult_129_n778
*1137 filter_mult_129_n777
*1138 filter_mult_129_n776
*1139 filter_mult_129_n775
*1140 filter_mult_129_n774
*1141 filter_mult_129_n773
*1142 filter_mult_129_n772
*1143 filter_mult_129_n771
*1144 filter_mult_129_n770
*1145 filter_mult_129_n769
*1146 filter_mult_129_n768
*1147 filter_mult_129_n767
*1148 filter_mult_129_n766
*1149 filter_mult_129_n765
*1150 filter_mult_129_n764
*1151 filter_mult_129_n763
*1152 filter_mult_129_n762
*1153 filter_mult_129_n761
*1154 filter_mult_129_n760
*1155 filter_mult_129_n759
*1156 filter_mult_129_n758
*1157 filter_mult_129_n757